<?xml version="1.0" encoding="UTF-8"?>

<!-- generated on 2021-05-17 22:18:31 by Eclipse SUMO polyconvert Version 1.9.1
<configuration xmlns:xsi="http://www.w3.org/2001/XMLSchema-instance" xsi:noNamespaceSchemaLocation="http://sumo.dlr.de/xsd/polyconvertConfiguration.xsd">

    <input>
        <net-file value="osm.net.xml"/>
        <osm-files value="osm_bbox.osm.xml"/>
        <osm.keep-full-type value="true"/>
        <type-file value="/usr/share/sumo/data/typemap/osmPolyconvert.typ.xml"/>
    </input>

    <output>
        <output-file value="osm.poly.xml"/>
    </output>

    <processing>
        <poi-layer-offset value="5"/>
    </processing>

    <report>
        <verbose value="true"/>
    </report>

</configuration>
-->

<additional xmlns:xsi="http://www.w3.org/2001/XMLSchema-instance" xsi:noNamespaceSchemaLocation="http://sumo.dlr.de/xsd/additional_file.xsd">
    <location netOffset="-321496.17,-4124561.39" convBoundary="-702.09,0.00,4827.61,4258.29" origBoundary="126.978409,37.251425,127.041693,37.288877" projParameter="+proj=utm +zone=52 +ellps=WGS84 +datum=WGS84 +units=m +no_defs"/>

    <poly id="316509661" type="building.train_station" color="255,230,230" fill="1" layer="-1.00" shape="1055.459318,1757.143605 1091.430995,1681.053832 1094.834916,1673.366809 1098.120559,1665.959805 1171.012259,1512.784035 1269.904504,1559.136725 1242.823972,1617.765143 1259.755120,1623.801260 1211.243151,1729.150061 1196.349715,1755.284920 1186.759836,1783.427893 1181.860221,1795.065016 1168.457876,1818.282254 1127.558955,1880.367046 1117.947607,1876.019088 1115.634658,1875.302069 1122.500046,1862.235743 1088.620330,1847.211740 1118.921945,1778.635025 1055.459318,1757.143605"/>
    <poly id="38316679" type="landuse.farmland" color="194,194,130" fill="1" layer="-3.00" shape="200.803728,2577.106347 196.177887,2538.541002 259.649905,2408.301337 613.980308,2277.192893 640.875147,2288.755386 655.611047,2311.787504 729.947521,2626.601941 590.816627,2951.905447 261.477457,2780.524132 345.515148,2614.980579 311.630473,2596.740692 293.246105,2627.458515 200.803728,2577.106347"/>
    <poly id="468974471" type="leisure.park" color="207,245,201" fill="1" layer="-2.00" shape="1896.076044,1586.966838 1925.590128,1587.666372 1919.910370,1609.076800 1947.332179,1620.388175 1935.121674,1646.387394 1920.296121,1650.995440 1907.177164,1634.265628 1900.335751,1616.093781 1896.076044,1586.966838"/>
    <poly id="469348612" type="landuse.residential" color="235,235,227" fill="1" layer="-3.00" shape="1676.571328,1423.562648 1841.668734,1397.216531 1817.675327,1261.029772 1800.971350,1251.047036 1744.145218,1254.897370 1643.262150,1244.169436 1638.988489,1248.511061 1676.571328,1423.562648"/>
    <poly id="469348613" type="landuse.residential" color="235,235,227" fill="1" layer="-3.00" shape="1504.755546,1182.363560 1507.593818,1194.514296 1583.525166,1222.328925 1645.956974,1230.170313 1663.520723,1192.124716 1669.536839,1172.793922 1743.980463,1171.713308 1801.955319,1172.667545 1800.452694,1205.368108 1838.779946,1207.824356 1843.485765,1213.886048 1861.553039,1181.591496 1939.582220,1121.981686 1944.964755,1107.504300 1924.316985,1057.697897 1885.159325,982.539085 1869.856733,977.188910 1754.207181,1011.128188 1605.925805,1057.723592 1555.916556,1074.385733 1504.755546,1182.363560"/>
    <poly id="469348617" type="building.house" color="255,230,230" fill="1" layer="-1.00" shape="1948.748963,1214.789026 1959.902576,1207.671937 1968.348273,1217.751079 1980.625824,1207.546616 1962.696899,1176.032104 1934.856466,1196.321544 1948.748963,1214.789026"/>
    <poly id="469348620" type="landuse.residential" color="235,235,227" fill="1" layer="-3.00" shape="1876.939178,1432.772510 1871.029571,1437.792299 1895.284680,1577.192819 2004.743763,1582.503604 2003.790367,1615.192553 2064.908285,1610.087995 2079.008974,1630.482763 2111.221294,1628.717366 2170.866051,1601.654417 2072.297778,1389.464878 1876.939178,1432.772510"/>
    <poly id="469348629" type="amenity.townhall" color="237,199,199" fill="1" layer="-1.00" shape="1849.834853,1265.114551 1863.915947,1271.889054 1875.820715,1247.361476 1861.739591,1240.586952 1849.834853,1265.114551"/>
    <poly id="469348629#1" type="building.public" color="255,230,230" fill="1" layer="-1.00" shape="1849.834853,1265.114551 1863.915947,1271.889054 1875.820715,1247.361476 1861.739591,1240.586952 1849.834853,1265.114551"/>
    <poly id="469348631" type="landuse.residential" color="235,235,227" fill="1" layer="-3.00" shape="2001.629069,1306.321203 2031.778616,1299.226321 2015.627010,1268.673369 1997.332271,1273.731648 2001.629069,1306.321203"/>
    <poly id="469348634" type="landuse.residential" color="235,235,227" fill="1" layer="-3.00" shape="1387.094886,1525.912505 1376.811147,1540.149717 1393.056045,1593.933113 1421.652860,1597.403192 1436.319235,1623.501828 1435.991693,1686.149334 1438.991693,1710.163162 1486.183556,1705.226252 1491.149293,1719.818611 1508.838525,1716.814437 1523.583621,1723.962855 1581.564267,1719.897773 1593.478548,1689.164272 1601.093150,1674.561811 1639.885480,1666.772501 1693.650531,1672.721023 1703.297686,1647.630186 1705.254442,1627.241606 1708.439944,1597.802369 1737.435809,1573.491505 1780.760467,1551.720564 1798.720260,1519.428068 1800.300231,1487.458491 1781.719754,1461.663757 1773.371483,1448.629999 1552.297686,1484.494828 1477.071347,1496.705500 1396.485952,1510.994822 1387.094886,1525.912505"/>
    <poly id="470620428" type="amenity.restaurant" color="237,199,199" fill="1" layer="-1.00" shape="1964.206070,1375.465874 1962.387452,1364.936440 1975.241310,1362.734412 1977.690510,1374.560440 1964.206070,1375.465874"/>
    <poly id="470620428#1" type="building.yes" color="255,230,230" fill="1" layer="-1.00" shape="1964.206070,1375.465874 1962.387452,1364.936440 1975.241310,1362.734412 1977.690510,1374.560440 1964.206070,1375.465874"/>
    <poly id="470620430" type="amenity.parking" color="184,184,179" fill="1" layer="-1.00" shape="1846.533528,1317.734060 1888.711984,1333.729762 1899.523031,1316.251886 1880.230447,1308.044090 1882.902377,1297.575519 1868.359994,1292.486882 1846.533528,1317.734060"/>
    <poly id="470620443" type="building.apartments" color="255,230,230" fill="1" layer="-1.00" shape="1898.286374,1327.467270 1920.143048,1337.785729 1935.235954,1335.314493 1966.592200,1315.161936 1960.218988,1305.327793 1927.421812,1323.623614 1920.566591,1323.767930 1902.054048,1318.052387 1898.286374,1327.467270"/>
    <poly id="470674289" type="amenity.bank" color="237,199,199" fill="1" layer="-1.00" shape="1849.719775,1349.381214 1846.585892,1337.491929 1857.968542,1334.521469 1862.521129,1347.213420 1849.719775,1349.381214"/>
    <poly id="470674289#1" type="building.yes" color="255,230,230" fill="1" layer="-1.00" shape="1849.719775,1349.381214 1846.585892,1337.491929 1857.968542,1334.521469 1862.521129,1347.213420 1849.719775,1349.381214"/>
    <poly id="470674292" type="building.cathedral" color="255,230,230" fill="1" layer="-1.00" shape="1674.525810,1211.640603 1673.583750,1198.939224 1711.144454,1196.171592 1712.086458,1208.872973 1674.525810,1211.640603"/>
    <poly id="470674294" type="building.yes" color="255,230,230" fill="1" layer="-1.00" shape="1764.323068,1238.576198 1763.134511,1227.223178 1772.531989,1226.037224 1771.787295,1220.169623 1789.106836,1217.673422 1788.287494,1212.473426 1796.600015,1211.587872 1800.170317,1234.501893 1764.323068,1238.576198"/>
    <poly id="470674294#1" type="shop.bakery" color="237,199,255" fill="1" layer="-1.00" shape="1764.323068,1238.576198 1763.134511,1227.223178 1772.531989,1226.037224 1771.787295,1220.169623 1789.106836,1217.673422 1788.287494,1212.473426 1796.600015,1211.587872 1800.170317,1234.501893 1764.323068,1238.576198"/>
    <poly id="470674295" type="amenity.bank" color="237,199,199" fill="1" layer="-1.00" shape="1822.092430,1235.694088 1831.428774,1226.972218 1816.925983,1216.610069 1811.079014,1221.240054 1818.163900,1226.518982 1815.082942,1230.624479 1822.092430,1235.694088"/>
    <poly id="470674295#1" type="building.yes" color="255,230,230" fill="1" layer="-1.00" shape="1822.092430,1235.694088 1831.428774,1226.972218 1816.925983,1216.610069 1811.079014,1221.240054 1818.163900,1226.518982 1815.082942,1230.624479 1822.092430,1235.694088"/>
    <poly id="470674296" type="building.yes" color="255,230,230" fill="1" layer="-1.00" shape="1835.079293,1448.306840 1832.602467,1439.811588 1843.166993,1436.758427 1849.307092,1445.631648 1835.079293,1448.306840"/>
    <poly id="470674296#1" type="shop.convenience" color="237,199,255" fill="1" layer="-1.00" shape="1835.079293,1448.306840 1832.602467,1439.811588 1843.166993,1436.758427 1849.307092,1445.631648 1835.079293,1448.306840"/>
    <poly id="470674297" type="building.yes" color="255,230,230" fill="1" layer="-1.00" shape="1981.286583,1373.430207 1978.882887,1360.815082 1989.540453,1358.803606 1992.899573,1371.287622 1981.286583,1373.430207"/>
    <poly id="470674297#1" type="shop.clothes" color="237,199,255" fill="1" layer="-1.00" shape="1981.286583,1373.430207 1978.882887,1360.815082 1989.540453,1358.803606 1992.899573,1371.287622 1981.286583,1373.430207"/>
    <poly id="470674300" type="amenity.restaurant" color="237,199,199" fill="1" layer="-1.00" shape="1995.057134,1349.440767 1991.078208,1341.232399 2003.180173,1339.556864 2010.244086,1347.222999 1995.057134,1349.440767"/>
    <poly id="470674300#1" type="building.yes" color="255,230,230" fill="1" layer="-1.00" shape="1995.057134,1349.440767 1991.078208,1341.232399 2003.180173,1339.556864 2010.244086,1347.222999 1995.057134,1349.440767"/>
    <poly id="470910600" type="amenity.school" color="237,199,199" fill="1" layer="-1.00" shape="876.857404,2015.905931 875.974947,1891.730759 964.897787,1898.916981 943.176485,2031.585316 900.680456,2021.062676 876.857404,2015.905931"/>
    <poly id="470910606" type="building.no" color="255,230,230" fill="1" layer="-1.00" shape="714.291462,2066.850572 695.694015,2060.451287 687.202617,2085.074965 706.581070,2091.490972 714.291462,2066.850572"/>
    <poly id="470910608" type="amenity.place_of_worship" color="237,199,199" fill="1" layer="-1.00" shape="726.435379,2060.931785 741.063977,2062.575388 736.555920,2101.434401 723.414123,2097.106235 726.435379,2060.931785"/>
    <poly id="470910608#1" type="building.yes" color="255,230,230" fill="1" layer="-1.00" shape="726.435379,2060.931785 741.063977,2062.575388 736.555920,2101.434401 723.414123,2097.106235 726.435379,2060.931785"/>
    <poly id="473931075" type="building.apartments" color="255,230,230" fill="1" layer="-1.00" shape="777.579745,1938.684208 777.465923,1927.452774 869.826598,1926.483857 869.940297,1937.715287 777.579745,1938.684208"/>
    <poly id="473931076" type="landuse.residential" color="235,235,227" fill="1" layer="-3.00" shape="626.219780,2001.859043 593.348736,1858.347771 592.434131,1809.380002 742.986252,1808.807285 753.035365,1838.399503 763.765460,1869.986513 769.404323,1877.770658 776.115364,1880.470194 875.974947,1891.730759 876.857404,2015.905931 900.680456,2021.062676 903.582569,2050.018262 896.072089,2073.233340 626.219780,2001.859043"/>
    <poly id="473931077" type="building.apartments" color="255,230,230" fill="1" layer="-1.00" shape="752.306228,1904.874484 752.359734,1881.029176 764.115433,1881.057532 764.061894,1904.902839 752.306228,1904.874484"/>
    <poly id="473931080" type="building.apartments" color="255,230,230" fill="1" layer="-1.00" shape="755.365033,1979.705671 755.056562,1940.038520 766.472618,1939.951967 766.781035,1979.619117 755.365033,1979.705671"/>
    <poly id="473931081" type="building.apartments" color="255,230,230" fill="1" layer="-1.00" shape="681.562444,1933.304410 681.319567,1921.431869 753.371904,1919.993169 753.605811,1931.865896 681.562444,1933.304410"/>
    <poly id="473931082" type="building.apartments" color="255,230,230" fill="1" layer="-1.00" shape="797.124334,1991.863903 796.904121,1980.634724 865.445015,1979.304670 865.656269,1990.534035 797.124334,1991.863903"/>
    <poly id="473931083" type="building.apartments" color="255,230,230" fill="1" layer="-1.00" shape="733.897723,1868.898985 732.586886,1829.241982 743.181138,1828.884210 744.491925,1868.541212 733.897723,1868.898985"/>
    <poly id="473931084" type="building.apartments" color="255,230,230" fill="1" layer="-1.00" shape="679.273909,1827.885709 679.157450,1816.954044 727.409188,1816.430593 727.534452,1827.362068 679.273909,1827.885709"/>
    <poly id="473931085" type="building.apartments" color="255,230,230" fill="1" layer="-1.00" shape="681.095371,1881.152381 680.924219,1869.733447 728.656617,1868.998985 728.827939,1880.429013 681.095371,1881.152381"/>
    <poly id="473931086" type="building.apartments" color="255,230,230" fill="1" layer="-1.00" shape="597.187928,1828.128060 596.955845,1817.187742 645.985784,1816.125585 646.226671,1827.065713 597.187928,1828.128060"/>
    <poly id="473931087" type="building.apartments" color="255,230,230" fill="1" layer="-1.00" shape="652.727675,1869.221307 652.395844,1829.310419 663.084423,1829.216961 663.416204,1869.127847 652.727675,1869.221307"/>
    <poly id="473931088" type="building.apartments" color="255,230,230" fill="1" layer="-1.00" shape="643.836761,1881.287557 643.748663,1870.022268 603.158053,1870.339294 603.245970,1881.593489 643.836761,1881.287557"/>
    <poly id="473931089" type="building.apartments" color="255,230,230" fill="1" layer="-1.00" shape="655.860581,1921.150298 655.524747,1881.050782 666.807638,1880.955821 667.143419,1921.055336 655.860581,1921.150298"/>
    <poly id="473931090" type="building.apartments" color="255,230,230" fill="1" layer="-1.00" shape="656.064737,1939.561943 656.409905,1929.064510 614.222615,1927.705861 613.877499,1938.203297 656.064737,1939.561943"/>
    <poly id="473931091" type="building.apartments" color="255,230,230" fill="1" layer="-1.00" shape="657.734155,1991.089050 657.901097,1943.741245 669.719025,1943.779245 669.552017,1991.127047 657.734155,1991.089050"/>
    <poly id="473931092" type="building.apartments" color="255,230,230" fill="1" layer="-1.00" shape="681.094583,2003.703529 680.766155,1992.398934 753.025698,1990.300865 753.362897,2001.605271 681.094583,2003.703529"/>
    <poly id="473931093" type="building.apartments" color="255,230,230" fill="1" layer="-1.00" shape="765.869642,2023.263951 765.846590,2012.130496 790.127222,2012.082136 790.150243,2023.215589 765.869642,2023.263951"/>
    <poly id="473931094" type="building.apartments" color="255,230,230" fill="1" layer="-1.00" shape="892.685930,2044.043792 892.550522,2032.624110 811.945568,2033.576853 812.081086,2044.996538 892.685930,2044.043792"/>
    <poly id="473931095" type="building.school" color="255,230,230" fill="1" layer="-1.00" shape="887.202275,2000.434549 893.038679,1939.224166 912.302261,1941.047428 904.560043,1984.326232 945.966402,1992.818357 942.210029,2011.080719 887.202275,2000.434549"/>
    <poly id="476860658" type="amenity.restaurant" color="237,199,199" fill="1" layer="-1.00" shape="757.426549,2336.447780 777.272275,2296.297902 789.499734,2302.288408 769.021968,2341.918821 757.426549,2336.447780"/>
    <poly id="476860658#1" type="building.yes" color="255,230,230" fill="1" layer="-1.00" shape="757.426549,2336.447780 777.272275,2296.297902 789.499734,2302.288408 769.021968,2341.918821 757.426549,2336.447780"/>
    <poly id="476860659" type="landuse.garages" color="194,194,130" fill="1" layer="-3.00" shape="763.996175,2353.836441 815.338740,2373.306663 832.449309,2365.673163 860.326311,2301.353744 853.150573,2286.753019 808.540655,2265.175052 763.996175,2353.836441"/>
    <poly id="476860660" type="amenity.fuel" color="237,199,199" fill="1" layer="-1.00" shape="713.605440,2267.975550 720.717740,2255.303221 730.930309,2259.982088 723.841052,2273.741783 713.605440,2267.975550"/>
    <poly id="476860663" type="amenity.parking" color="184,184,179" fill="1" layer="-1.00" shape="775.398871,1337.131614 798.780589,1284.929500 803.742585,1287.133307 806.783900,1280.341898 932.569205,1336.145038 930.629492,1340.493142 934.489805,1342.209717 916.427492,1382.521038 911.474451,1380.316979 909.576753,1384.553193 861.193347,1363.054608 863.209544,1358.549458 850.052467,1352.711675 843.190378,1368.031569 828.805880,1361.631484 826.679585,1366.383190 779.585812,1345.468275 781.999976,1340.066620 775.398871,1337.131614"/>
    <poly id="476860666" type="amenity.parking" color="184,184,179" fill="1" layer="-1.00" shape="927.869220,1412.527977 959.659630,1427.251545 958.202864,1432.199954 1008.385332,1453.216966 1118.168690,1501.402195 1147.825673,1444.217458 956.751496,1350.641158 927.869220,1412.527977"/>
    <poly id="485052063" type="building.apartments" color="255,230,230" fill="1" layer="-1.00" shape="1142.781379,1255.591725 1137.003107,1265.970860 1175.344366,1287.128286 1181.122667,1276.749178 1142.781379,1255.591725"/>
    <poly id="485053431" type="waterway.stream" color="181,209,209" fill="0" layer="-4.00" shape="1213.934880,1398.162121 1148.056475,1356.528936 997.879514,1227.608473 961.953423,1183.100517 894.474354,1103.305830"/>
    <poly id="485135023" type="building.apartments" color="255,230,230" fill="1" layer="-1.00" shape="1235.420954,1331.714968 1224.343268,1325.599554 1204.742932,1360.792002 1215.820589,1366.907390 1235.420954,1331.714968"/>
    <poly id="485135024" type="building.apartments" color="255,230,230" fill="1" layer="-1.00" shape="1235.734000,1307.065038 1246.766890,1313.159214 1263.888529,1282.415092 1252.855615,1276.320893 1235.734000,1307.065038"/>
    <poly id="485135025" type="building.apartments" color="255,230,230" fill="1" layer="-1.00" shape="1203.733361,1296.241182 1197.074676,1308.204067 1220.082697,1320.894147 1226.741637,1308.942377 1203.733361,1296.241182"/>
    <poly id="485135026" type="building.apartments" color="255,230,230" fill="1" layer="-1.00" shape="1181.998010,1298.010515 1168.372722,1322.475669 1179.306921,1328.516342 1192.932229,1304.051206 1181.998010,1298.010515"/>
    <poly id="485135027" type="building.apartments" color="255,230,230" fill="1" layer="-1.00" shape="1194.376207,1275.825171 1203.927822,1281.095862 1218.562006,1254.822258 1209.019240,1249.551363 1194.376207,1275.825171"/>
    <poly id="485135028" type="building.apartments" color="255,230,230" fill="1" layer="-1.00" shape="1124.171242,1303.617925 1118.153163,1314.401769 1155.228810,1334.875422 1161.237816,1324.080697 1124.171242,1303.617925"/>
    <poly id="485135029" type="building.apartments" color="255,230,230" fill="1" layer="-1.00" shape="1190.909291,1224.302896 1167.721252,1211.505680 1162.404454,1221.053592 1185.592476,1233.850793 1190.909291,1224.302896"/>
    <poly id="485135030" type="building.apartments" color="255,230,230" fill="1" layer="-1.00" shape="1197.033237,1215.581587 1191.913114,1224.781203 1214.508489,1237.246890 1219.628862,1228.058383 1197.033237,1215.581587"/>
    <poly id="485135031" type="building.apartments" color="255,230,230" fill="1" layer="-1.00" shape="1263.181110,1260.273264 1273.585511,1266.014438 1288.100465,1239.965501 1277.695811,1234.213213 1263.181110,1260.273264"/>
    <poly id="485135032" type="building.apartments" color="255,230,230" fill="1" layer="-1.00" shape="1231.269557,1247.793426 1225.362837,1258.397219 1249.259935,1271.590321 1255.166674,1260.986544 1231.269557,1247.793426"/>
    <poly id="485135033" type="building.apartments" color="255,230,230" fill="1" layer="-1.00" shape="1249.199512,1212.469857 1237.986783,1206.268466 1226.079240,1227.644540 1237.300584,1233.834632 1249.199512,1212.469857"/>
    <poly id="485135034" type="building.apartments" color="255,230,230" fill="1" layer="-1.00" shape="1258.508293,1213.805033 1281.866784,1226.698795 1287.269347,1217.004846 1263.910840,1204.111068 1258.508293,1213.805033"/>
    <poly id="485254977" type="landuse.residential" color="235,235,227" fill="1" layer="-3.00" shape="1118.153163,1314.401769 1155.173289,1349.873505 1202.026138,1382.528893 1217.883206,1389.775420 1311.765353,1215.288488 1261.867543,1196.428234 1255.447626,1207.941993 1234.776724,1197.955359 1218.173493,1223.426895 1196.014476,1210.618955 1188.576820,1219.312532 1160.696351,1206.148303 1139.780704,1252.569208 1118.153163,1314.401769"/>
    <poly id="492014036" type="landuse.brownfield" color="194,194,130" fill="1" layer="-3.00" shape="1085.125072,2451.436874 1339.729853,2475.103650 1349.382485,2465.908210 1249.180872,2272.755063 1202.378985,2187.315176 1107.277807,2122.334305 1059.248101,2121.940725 946.055175,2376.176743 1089.590896,2386.203919 1085.125072,2451.436874"/>
    <poly id="501172039" type="man_made.bridge" color="255,230,230" fill="1" layer="-1.00" shape="932.153217,2154.114364 935.698997,2145.602800 941.887619,2127.832855 948.395566,2112.154174 1016.223810,2089.782497 1007.857819,2106.122080 997.801450,2124.329058 992.181536,2134.605094 932.153217,2154.114364"/>
    <poly id="511048802" type="building.commercial" color="255,230,230" fill="1" layer="-1.00" shape="1675.936148,2012.827390 1690.402532,1982.384312 1717.669573,1995.230034 1703.203118,2025.673063 1675.936148,2012.827390"/>
    <poly id="537280229" type="amenity.school" color="237,199,199" fill="1" layer="-1.00" shape="2011.240089,1763.461103 2138.794345,1734.991205 2115.742103,1632.751684 2076.283952,1636.745285 2066.398859,1620.213627 1998.266609,1622.102330 1974.755712,1627.570198 1941.256172,1655.427297 1937.867908,1667.265207 2011.240089,1763.461103"/>
    <poly id="537452097" type="building.commercial" color="255,230,230" fill="1" layer="-1.00" shape="1332.328498,1729.654985 1384.525239,1754.183734 1392.825522,1758.626287 1421.529594,1705.436680 1389.436581,1630.918994 1381.290341,1630.835716 1332.328498,1729.654985"/>
    <poly id="537472178" type="leisure.park" color="207,245,201" fill="1" layer="-2.00" shape="1762.426667,2191.798999 1798.892564,2208.436165 1812.007016,2179.931078 1775.541262,2163.304948 1762.426667,2191.798999"/>
    <poly id="556954296" type="amenity.bus_station" color="237,199,199" fill="1" layer="-1.00" shape="1027.330676,1697.384766 1035.071097,1699.674207 1043.156807,1699.414308 1050.736254,1696.611987 1057.035166,1691.572242 1061.407879,1684.808258 1067.982129,1671.814659 1071.708516,1663.854389 1074.942865,1656.959088 1080.694861,1642.839535 1082.043804,1635.728809 1081.323680,1628.528647 1078.582395,1621.826367 1074.044514,1616.172250 1068.092589,1612.035532 1060.785227,1609.670291 1053.100318,1609.588670 1045.747550,1611.786754 1039.388510,1616.084035 1034.609145,1622.079591 1025.164511,1642.815581 1015.092812,1664.941332 1013.199751,1672.330002 1013.618007,1679.936173 1016.306412,1687.072477 1021.020069,1693.066963 1027.330676,1697.384766"/>
    <poly id="556954296#1" type="building.yes" color="255,230,230" fill="1" layer="-1.00" shape="1027.330676,1697.384766 1035.071097,1699.674207 1043.156807,1699.414308 1050.736254,1696.611987 1057.035166,1691.572242 1061.407879,1684.808258 1067.982129,1671.814659 1071.708516,1663.854389 1074.942865,1656.959088 1080.694861,1642.839535 1082.043804,1635.728809 1081.323680,1628.528647 1078.582395,1621.826367 1074.044514,1616.172250 1068.092589,1612.035532 1060.785227,1609.670291 1053.100318,1609.588670 1045.747550,1611.786754 1039.388510,1616.084035 1034.609145,1622.079591 1025.164511,1642.815581 1015.092812,1664.941332 1013.199751,1672.330002 1013.618007,1679.936173 1016.306412,1687.072477 1021.020069,1693.066963 1027.330676,1697.384766"/>
    <poly id="617564356" type="building.yes" color="255,230,230" fill="1" layer="-1.00" shape="1051.152560,2025.292426 1065.097446,2031.102692 1083.014748,2012.496381 1123.635548,1908.789891 1106.362135,1901.651252 1117.947607,1876.019088 1115.634658,1875.302069 1103.530637,1900.745395 1051.152560,2025.292426"/>
    <poly id="680063113" type="landuse.commercial" color="209,209,204" fill="1" layer="-3.00" shape="742.520781,2224.203200 845.978696,2276.104045 894.499335,2180.343357 742.520781,2224.203200"/>
    <poly id="762519516" type="leisure.pitch" color="207,245,201" fill="1" layer="-2.00" shape="2011.249073,1715.828492 2093.655537,1700.030333 2080.460813,1647.624749 1996.350037,1664.247015 2011.249073,1715.828492"/>
    <poly id="762519517" type="building.yes" color="255,230,230" fill="1" layer="-1.00" shape="2007.690338,1742.333773 2113.925982,1721.039110 2098.883116,1646.560113 2111.631545,1644.005270 2129.149123,1730.698327 2077.051914,1741.151864 2078.033003,1746.037663 2066.980835,1748.246065 2066.040580,1743.614721 2058.071862,1745.214340 2058.833825,1748.961391 2042.481016,1752.235994 2041.431061,1747.029732 2009.918416,1753.354123 2007.690338,1742.333773"/>
    <poly id="762519518" type="building.yes" color="255,230,230" fill="1" layer="-1.00" shape="1992.720079,1652.801050 2028.844911,1645.558127 2028.419227,1643.457982 2034.294262,1642.279811 2030.451917,1623.267735 1988.451948,1631.688845 1992.720079,1652.801050"/>
    <poly id="762519519" type="building.yes" color="255,230,230" fill="1" layer="-1.00" shape="1943.421877,1658.001433 1975.890662,1632.597056 1982.234906,1640.644624 1978.874441,1643.268478 1983.878651,1649.612567 1981.138008,1651.757152 1984.009189,1655.393202 1973.090272,1663.937327 1968.186412,1657.724339 1958.489409,1665.310319 1956.529775,1662.831746 1955.194464,1663.881105 1953.088737,1661.205799 1948.672316,1664.662235 1943.421877,1658.001433"/>
    <poly id="762519520" type="building.yes" color="255,230,230" fill="1" layer="-1.00" shape="1999.362444,1724.337450 1975.634806,1671.865059 1966.942398,1675.755605 1990.679184,1728.238882 1999.362444,1724.337450"/>
    <poly id="765275388" type="building.yes" color="255,230,230" fill="1" layer="-1.00" shape="2022.648118,1418.516043 2024.614842,1428.498444 1984.244465,1436.407906 1982.277928,1426.436609 2022.648118,1418.516043"/>
    <poly id="765275389" type="building.yes" color="255,230,230" fill="1" layer="-1.00" shape="1884.129041,1454.422577 1900.127965,1433.471982 1927.328835,1454.068028 1919.135073,1464.797148 1901.013085,1451.069908 1893.199039,1461.291535 1884.129041,1454.422577"/>
    <poly id="765275390" type="building.yes" color="255,230,230" fill="1" layer="-1.00" shape="1934.010842,1444.436395 1946.800381,1427.804967 1967.052132,1443.241361 1960.946727,1451.184648 1952.651355,1444.865442 1950.950330,1447.088054 1947.623310,1444.560561 1942.657928,1451.025693 1934.010842,1444.436395"/>
    <poly id="765275391" type="building.yes" color="255,230,230" fill="1" layer="-1.00" shape="1891.879872,1503.978708 1907.059569,1482.889963 1934.910665,1502.773001 1926.868414,1513.954049 1915.527995,1505.856297 1918.588115,1501.606964 1909.553429,1495.147958 1904.321148,1502.417977 1906.293643,1503.819516 1901.319705,1510.717779 1891.879872,1503.978708"/>
    <poly id="765275392" type="building.yes" color="255,230,230" fill="1" layer="-1.00" shape="1948.467457,1500.678227 1969.451864,1471.685937 1991.269404,1487.333638 1985.036133,1495.945632 1972.307636,1486.811368 1957.547614,1507.191818 1948.467457,1500.678227"/>
    <poly id="765275394" type="building.yes" color="255,230,230" fill="1" layer="-1.00" shape="2005.232194,1497.363300 2049.752758,1478.410383 2053.997389,1488.289363 2009.477338,1507.264452 2005.232194,1497.363300"/>
    <poly id="765275397" type="building.yes" color="255,230,230" fill="1" layer="-1.00" shape="1953.236265,1559.477317 1973.851832,1532.779503 2008.126668,1559.021379 2000.992637,1568.251748 1976.167816,1549.237260 1962.677394,1566.704847 1953.236265,1559.477317"/>
    <poly id="765275398" type="building.yes" color="255,230,230" fill="1" layer="-1.00" shape="1925.653349,1541.786491 1945.289008,1556.625264 1938.675446,1565.289706 1927.676755,1556.984939 1914.614671,1574.143877 1905.977950,1567.620996 1925.653349,1541.786491"/>
    <poly id="765276694" type="building.yes" color="255,230,230" fill="1" layer="-1.00" shape="1868.836613,1101.503124 1859.410858,1107.251878 1884.968867,1148.795855 1894.394589,1143.047128 1868.836613,1101.503124"/>
    <poly id="765276700" type="building.yes" color="255,230,230" fill="1" layer="-1.00" shape="1548.855696,1161.107983 1568.258254,1170.289584 1570.008635,1166.622778 1592.503082,1177.271093 1587.880810,1186.959467 1565.350440,1176.289722 1564.126973,1178.857558 1544.751268,1169.686502 1548.855696,1161.107983"/>
    <poly id="765276701" type="building.yes" color="255,230,230" fill="1" layer="-1.00" shape="1658.480761,1180.741894 1665.434465,1173.058016 1642.434902,1159.067791 1607.586349,1165.075393 1609.749136,1174.232148 1640.226690,1169.215859 1658.480761,1180.741894"/>
    <poly id="765276702" type="building.yes" color="255,230,230" fill="1" layer="-1.00" shape="1687.676838,1155.760695 1702.206551,1134.973914 1706.600347,1138.011662 1710.665395,1132.187000 1713.294296,1133.996486 1732.652772,1147.408699 1727.433242,1154.867260 1708.047934,1141.444525 1694.663820,1160.597568 1687.676838,1155.760695"/>
    <poly id="765276703" type="building.yes" color="255,230,230" fill="1" layer="-1.00" shape="1750.693603,1150.924826 1765.438876,1129.833907 1770.724195,1133.496735 1773.730015,1129.192997 1795.231364,1144.092077 1790.614576,1150.683156 1771.697311,1137.572335 1758.553888,1156.364979 1750.693603,1150.924826"/>
    <poly id="765276704" type="building.yes" color="255,230,230" fill="1" layer="-1.00" shape="1845.437119,1181.420263 1854.162178,1176.108064 1829.831728,1136.403211 1807.825557,1149.765567 1813.439613,1158.927367 1826.711583,1150.866334 1845.437119,1181.420263"/>
    <poly id="765276705" type="building.yes" color="255,230,230" fill="1" layer="-1.00" shape="1686.588748,1256.088253 1698.539838,1275.872838 1689.445077,1281.315111 1683.340813,1271.209075 1657.783062,1286.522725 1651.936200,1276.844205 1686.588748,1256.088253"/>