<?xml version="1.0" encoding="UTF-8"?>

<!-- generated on 2021-05-17 23:07:18 by Eclipse SUMO netedit Version 1.9.1
<configuration xmlns:xsi="http://www.w3.org/2001/XMLSchema-instance" xsi:noNamespaceSchemaLocation="http://sumo.dlr.de/xsd/netconvertConfiguration.xsd">

    <input>
        <sumo-net-file value="/home/home/Project/sumo_RL/suwonStation/osm.net.xml"/>
    </input>

    <output>
        <output-file value="/home/home/Project/sumo_RL/suwonStation/osm.net.xml"/>
        <output.street-names value="true"/>
    </output>

    <processing>
        <geometry.min-radius.fix.railways value="false"/>
        <geometry.max-grade.fix value="false"/>
        <offset.disable-normalization value="true"/>
        <lefthand value="false"/>
    </processing>

    <junctions>
        <no-turnarounds value="true"/>
        <junctions.corner-detail value="5"/>
        <junctions.limit-turn-speed value="5.5"/>
        <rectangular-lane-cut value="false"/>
    </junctions>

    <pedestrian>
        <walkingareas value="false"/>
    </pedestrian>

    <report>
        <aggregate-warnings value="5"/>
    </report>

</configuration>
-->

<net version="1.9" junctionCornerDetail="5" limitTurnSpeed="5.50" xmlns:xsi="http://www.w3.org/2001/XMLSchema-instance" xsi:noNamespaceSchemaLocation="http://sumo.dlr.de/xsd/net_file.xsd">

    <location netOffset="-321496.17,-4124561.39" convBoundary="0.00,0.00,4827.60,4258.29" origBoundary="126.986271,37.251425,127.041693,37.288877" projParameter="+proj=utm +zone=52 +ellps=WGS84 +datum=WGS84 +units=m +no_defs"/>

    <type id="highway.bridleway" priority="1" numLanes="1" speed="2.78" allow="pedestrian" oneway="1" width="2.00"/>
    <type id="highway.bus_guideway" priority="1" numLanes="1" speed="27.78" allow="bus" oneway="1"/>
    <type id="highway.cycleway" priority="1" numLanes="1" speed="8.33" allow="bicycle" oneway="1" width="1.00"/>
    <type id="highway.footway" priority="1" numLanes="1" speed="2.78" allow="pedestrian" oneway="1" width="2.00"/>
    <type id="highway.ford" priority="1" numLanes="1" speed="2.78" allow="army" oneway="1"/>
    <type id="highway.living_street" priority="2" numLanes="1" speed="2.78" disallow="tram rail_urban rail rail_electric rail_fast ship" oneway="1"/>
    <type id="highway.motorway" priority="14" numLanes="2" speed="39.44" allow="private emergency authority army vip passenger hov taxi bus coach delivery truck trailer motorcycle evehicle custom1 custom2" oneway="1"/>
    <type id="highway.motorway_link" priority="9" numLanes="1" speed="22.22" allow="private emergency authority army vip passenger hov taxi bus coach delivery truck trailer motorcycle evehicle custom1 custom2" oneway="1"/>
    <type id="highway.path" priority="1" numLanes="1" speed="2.78" allow="pedestrian bicycle" oneway="1" width="2.00"/>
    <type id="highway.pedestrian" priority="1" numLanes="1" speed="2.78" allow="pedestrian" oneway="1" width="2.00"/>
    <type id="highway.primary" priority="12" numLanes="2" speed="27.78" disallow="tram rail_urban rail rail_electric rail_fast ship" oneway="1"/>
    <type id="highway.primary_link" priority="7" numLanes="1" speed="22.22" disallow="tram rail_urban rail rail_electric rail_fast ship" oneway="1"/>
    <type id="highway.raceway" priority="15" numLanes="2" speed="83.33" allow="vip" oneway="1"/>
    <type id="highway.residential" priority="3" numLanes="1" speed="13.89" disallow="tram rail_urban rail rail_electric rail_fast ship" oneway="1"/>
    <type id="highway.secondary" priority="11" numLanes="1" speed="27.78" disallow="tram rail_urban rail rail_electric rail_fast ship" oneway="1"/>
    <type id="highway.secondary_link" priority="6" numLanes="1" speed="22.22" disallow="tram rail_urban rail rail_electric rail_fast ship" oneway="1"/>
    <type id="highway.service" priority="1" numLanes="1" speed="5.56" allow="pedestrian delivery bicycle" oneway="1"/>
    <type id="highway.stairs" priority="1" numLanes="1" speed="1.39" allow="pedestrian" oneway="1" width="2.00"/>
    <type id="highway.step" priority="1" numLanes="1" speed="1.39" allow="pedestrian" oneway="1" width="2.00"/>
    <type id="highway.steps" priority="1" numLanes="1" speed="1.39" allow="pedestrian" oneway="1" width="2.00"/>
    <type id="highway.tertiary" priority="10" numLanes="1" speed="22.22" disallow="tram rail_urban rail rail_electric rail_fast ship" oneway="1"/>
    <type id="highway.tertiary_link" priority="5" numLanes="1" speed="22.22" disallow="tram rail_urban rail rail_electric rail_fast ship" oneway="1"/>
    <type id="highway.track" priority="1" numLanes="1" speed="5.56" allow="pedestrian motorcycle moped bicycle" oneway="1"/>
    <type id="highway.trunk" priority="13" numLanes="2" speed="27.78" disallow="pedestrian bicycle tram rail_urban rail rail_electric rail_fast ship" oneway="1"/>
    <type id="highway.trunk_link" priority="8" numLanes="1" speed="22.22" disallow="pedestrian bicycle tram rail_urban rail rail_electric rail_fast ship" oneway="1"/>
    <type id="highway.unclassified" priority="4" numLanes="1" speed="13.89" disallow="tram rail_urban rail rail_electric rail_fast ship" oneway="1"/>
    <type id="highway.unsurfaced" priority="1" numLanes="1" speed="8.33" disallow="tram rail_urban rail rail_electric rail_fast ship" oneway="1"/>
    <type id="railway.highspeed" priority="21" numLanes="1" speed="69.44" allow="rail_fast" oneway="1"/>
    <type id="railway.light_rail" priority="19" numLanes="1" speed="27.78" allow="rail_urban" oneway="1"/>
    <type id="railway.preserved" priority="16" numLanes="1" speed="27.78" allow="rail" oneway="1"/>
    <type id="railway.rail" priority="20" numLanes="1" speed="44.44" allow="rail" oneway="1"/>
    <type id="railway.subway" priority="18" numLanes="1" speed="27.78" allow="rail_urban" oneway="1"/>
    <type id="railway.tram" priority="17" numLanes="1" speed="13.89" allow="tram" oneway="1"/>

    <edge id=":106520501#5-AddedOffRampNode_0" function="internal">
        <lane id=":106520501#5-AddedOffRampNode_0_0" index="0" disallow="tram rail_urban rail rail_electric rail_fast ship" speed="22.22" length="8.40" shape="1508.85,1481.79 1506.51,1482.69 1505.18,1484.04 1503.85,1485.38 1501.51,1486.29"/>
        <lane id=":106520501#5-AddedOffRampNode_0_1" index="1" disallow="tram rail_urban rail rail_electric rail_fast ship" speed="22.22" length="8.40" shape="1508.85,1481.79 1500.97,1483.14"/>
    </edge>
    <edge id=":1184134307_0" function="internal">
        <lane id=":1184134307_0_0" index="0" disallow="tram rail_urban rail rail_electric rail_fast ship" speed="7.39" length="10.73" shape="680.16,2231.75 677.37,2233.24 675.58,2235.10 674.78,2237.33 674.98,2239.94"/>
    </edge>
    <edge id=":1184134307_1" function="internal">
        <lane id=":1184134307_1_0" index="0" disallow="tram rail_urban rail rail_electric rail_fast ship" speed="27.78" length="12.80" shape="680.16,2231.75 668.16,2236.31"/>
        <lane id=":1184134307_1_1" index="1" disallow="tram rail_urban rail rail_electric rail_fast ship" speed="27.78" length="12.80" shape="678.99,2228.77 667.06,2233.30"/>
    </edge>
    <edge id=":1184134307_3" function="internal">
        <lane id=":1184134307_3_0" index="0" disallow="tram rail_urban rail rail_electric rail_fast ship" speed="3.65" length="2.34" shape="678.99,2228.77 677.58,2228.47 676.91,2227.87"/>
    </edge>
    <edge id=":1184134307_11" function="internal">
        <lane id=":1184134307_11_0" index="0" disallow="tram rail_urban rail rail_electric rail_fast ship" speed="3.65" length="2.34" shape="676.91,2227.87 676.99,2226.98 677.81,2225.80"/>
    </edge>
    <edge id=":1184134307_4" function="internal">
        <lane id=":1184134307_4_0" index="0" disallow="tram rail_urban rail rail_electric rail_fast ship" speed="6.25" length="9.05" shape="669.79,2219.32 670.76,2221.66 672.22,2223.02 674.18,2223.41 676.64,2222.82"/>
    </edge>
    <edge id=":1184134307_5" function="internal">
        <lane id=":1184134307_5_0" index="0" disallow="tram rail_urban rail rail_electric rail_fast ship" speed="22.22" length="21.26" shape="669.79,2219.32 674.98,2239.94"/>
    </edge>
    <edge id=":1184134307_6" function="internal">
        <lane id=":1184134307_6_0" index="0" disallow="tram rail_urban rail rail_electric rail_fast ship" speed="8.66" length="15.52" shape="669.79,2219.32 670.75,2224.65 670.62,2228.76 669.39,2231.64 667.06,2233.30"/>
    </edge>
    <edge id=":1184134307_7" function="internal">
        <lane id=":1184134307_7_0" index="0" disallow="tram rail_urban rail rail_electric rail_fast ship" speed="27.78" length="12.62" shape="664.87,2227.29 676.64,2222.82"/>
        <lane id=":1184134307_7_1" index="1" disallow="tram rail_urban rail rail_electric rail_fast ship" speed="27.78" length="12.62" shape="665.97,2230.29 677.81,2225.80"/>
    </edge>
    <edge id=":1184134307_9" function="internal">
        <lane id=":1184134307_9_0" index="0" disallow="tram rail_urban rail rail_electric rail_fast ship" speed="7.90" length="3.85" shape="665.97,2230.29 668.81,2230.07 669.66,2230.60"/>
    </edge>
    <edge id=":1184134307_10" function="internal">
        <lane id=":1184134307_10_0" index="0" disallow="tram rail_urban rail rail_electric rail_fast ship" speed="3.65" length="2.34" shape="665.97,2230.29 667.37,2230.64 668.02,2231.25"/>
    </edge>
    <edge id=":1184134307_12" function="internal">
        <lane id=":1184134307_12_0" index="0" disallow="tram rail_urban rail rail_electric rail_fast ship" speed="7.90" length="11.08" shape="669.66,2230.60 671.25,2231.60 673.31,2234.89 674.98,2239.94"/>
    </edge>
    <edge id=":1184134307_13" function="internal">
        <lane id=":1184134307_13_0" index="0" disallow="tram rail_urban rail rail_electric rail_fast ship" speed="3.65" length="2.34" shape="668.02,2231.25 667.92,2232.14 667.06,2233.30"/>
    </edge>
    <edge id=":1184134322_0" function="internal">
        <lane id=":1184134322_0_0" index="0" disallow="tram rail_urban rail rail_electric rail_fast ship" speed="6.70" length="8.54" shape="560.67,1731.82 562.98,1732.09 564.91,1731.63 566.46,1730.44 567.63,1728.50"/>
    </edge>
    <edge id=":1184134322_1" function="internal">
        <lane id=":1184134322_1_0" index="0" disallow="tram rail_urban rail rail_electric rail_fast ship" speed="3.65" length="4.67" shape="560.67,1731.82 561.63,1732.89 561.82,1733.77 561.23,1734.44 559.87,1734.91"/>
    </edge>
    <edge id=":1184134322_2" function="internal">
        <lane id=":1184134322_2_0" index="0" disallow="tram rail_urban rail rail_electric rail_fast ship" speed="6.52" length="8.42" shape="564.00,1741.21 564.04,1738.93 563.36,1737.13 561.97,1735.79 559.87,1734.91"/>
    </edge>
    <edge id=":1184134322_3" function="internal">
        <lane id=":1184134322_3_0" index="0" disallow="tram rail_urban rail rail_electric rail_fast ship" speed="22.22" length="13.26" shape="564.00,1741.21 564.62,1737.79 565.37,1734.73 566.35,1731.73 567.63,1728.50"/>
    </edge>
    <edge id=":1184134330_0" function="internal">
        <lane id=":1184134330_0_0" index="0" disallow="tram rail_urban rail rail_electric rail_fast ship" speed="6.56" length="9.37" shape="591.28,1798.75 588.64,1799.11 586.77,1800.17 585.69,1801.94 585.37,1804.41"/>
    </edge>
    <edge id=":1184134330_1" function="internal">
        <lane id=":1184134330_1_0" index="0" disallow="tram rail_urban rail rail_electric rail_fast ship" speed="3.65" length="4.67" shape="591.28,1798.75 590.08,1797.95 589.67,1797.16 590.07,1796.35 591.27,1795.55"/>
    </edge>
    <edge id=":1184134330_2" function="internal">
        <lane id=":1184134330_2_0" index="0" disallow="tram rail_urban rail rail_electric rail_fast ship" speed="6.21" length="9.05" shape="586.26,1789.77 586.25,1792.31 587.09,1794.12 588.76,1795.20 591.27,1795.55"/>
    </edge>
    <edge id=":1184134330_3" function="internal">
        <lane id=":1184134330_3_0" index="0" disallow="tram rail_urban rail rail_electric rail_fast ship" speed="22.22" length="14.68" shape="586.26,1789.77 585.80,1793.45 585.50,1797.07 585.35,1800.71 585.37,1804.41"/>
    </edge>
    <edge id=":1184134343_0" function="internal">
        <lane id=":1184134343_0_0" index="0" disallow="tram rail_urban rail rail_electric rail_fast ship" speed="7.06" length="4.56" shape="905.26,2134.90 906.32,2134.41 907.22,2133.76 907.96,2132.92 908.54,2131.91"/>
    </edge>
    <edge id=":1184134343_1" function="internal">
        <lane id=":1184134343_1_0" index="0" disallow="tram rail_urban rail rail_electric rail_fast ship" speed="27.78" length="4.78" shape="906.31,2137.92 910.86,2136.38"/>
        <lane id=":1184134343_1_1" index="1" disallow="tram rail_urban rail rail_electric rail_fast ship" speed="27.78" length="4.78" shape="907.35,2140.95 911.86,2139.42"/>
    </edge>
    <edge id=":1184134356_0" function="internal">
        <lane id=":1184134356_0_0" index="0" disallow="tram rail_urban rail rail_electric rail_fast ship" speed="6.53" length="9.35" shape="597.87,1752.02 595.21,1751.90 593.20,1752.61 591.83,1754.15 591.10,1756.53"/>
    </edge>
    <edge id=":1184134356_1" function="internal">
        <lane id=":1184134356_1_0" index="0" disallow="tram rail_urban rail rail_electric rail_fast ship" speed="3.65" length="4.67" shape="597.87,1752.02 596.83,1751.02 596.58,1750.16 597.12,1749.44 598.44,1748.87"/>
    </edge>
    <edge id=":1184134356_2" function="internal">
        <lane id=":1184134356_2_0" index="0" disallow="tram rail_urban rail rail_electric rail_fast ship" speed="6.20" length="9.05" shape="594.59,1742.28 594.11,1744.77 594.60,1746.70 596.04,1748.07 598.44,1748.87"/>
    </edge>
    <edge id=":1184134356_3" function="internal">
        <lane id=":1184134356_3_0" index="0" disallow="tram rail_urban rail rail_electric rail_fast ship" speed="22.22" length="14.70" shape="594.59,1742.28 593.46,1745.80 592.50,1749.32 591.72,1752.88 591.10,1756.53"/>
    </edge>
    <edge id=":1225440519_0" function="internal">
        <lane id=":1225440519_0_0" index="0" disallow="tram rail_urban rail rail_electric rail_fast ship" speed="27.78" length="4.32" shape="1452.58,1228.18 1454.48,1224.30"/>
    </edge>
    <edge id=":1225440519_1" function="internal">
        <lane id=":1225440519_1_0" index="0" disallow="tram rail_urban rail rail_electric rail_fast ship" speed="7.38" length="4.07" shape="1455.49,1229.50 1456.02,1228.42 1456.51,1227.74 1457.19,1227.24 1458.25,1226.71"/>
    </edge>
    <edge id=":1225440530_0" function="internal">
        <lane id=":1225440530_0_0" index="0" disallow="tram rail_urban rail rail_electric rail_fast ship" speed="18.05" length="9.15" shape="1212.00,1407.12 1206.80,1414.65"/>
    </edge>
    <edge id=":1225440530_1" function="internal">
        <lane id=":1225440530_1_0" index="0" disallow="tram rail_urban rail rail_electric rail_fast ship" speed="7.08" length="8.04" shape="1206.19,1407.17 1207.33,1409.24 1207.81,1411.18 1207.64,1412.98 1206.80,1414.65"/>
    </edge>
    <edge id=":1225440535_0" function="internal">
        <lane id=":1225440535_0_0" index="0" disallow="tram rail_urban rail rail_electric rail_fast ship" speed="12.18" length="4.66" shape="1370.78,1444.23 1370.29,1445.30 1370.05,1446.08 1369.95,1446.89 1369.91,1448.08"/>
        <lane id=":1225440535_0_1" index="1" disallow="tram rail_urban rail rail_electric rail_fast ship" speed="14.01" length="4.66" shape="1367.90,1442.84 1367.25,1444.27 1366.91,1445.30 1366.77,1446.38 1366.71,1447.96"/>
    </edge>
    <edge id=":1225440535_2" function="internal">
        <lane id=":1225440535_2_0" index="0" disallow="tram rail_urban rail rail_electric rail_fast ship" speed="3.65" length="2.34" shape="1367.90,1442.84 1366.66,1443.57 1365.77,1443.58"/>
    </edge>
    <edge id=":1225440535_6" function="internal">
        <lane id=":1225440535_6_0" index="0" disallow="tram rail_urban rail rail_electric rail_fast ship" speed="3.65" length="2.34" shape="1365.77,1443.58 1365.22,1442.87 1365.02,1441.44"/>
    </edge>
    <edge id=":1225440535_3" function="internal">
        <lane id=":1225440535_3_0" index="0" disallow="tram rail_urban rail rail_electric rail_fast ship" speed="27.78" length="7.19" shape="1359.10,1446.03 1360.30,1444.46 1360.90,1443.23 1361.36,1441.90 1362.14,1440.05"/>
        <lane id=":1225440535_3_1" index="1" disallow="tram rail_urban rail rail_electric rail_fast ship" speed="27.78" length="7.19" shape="1361.50,1448.14 1362.88,1446.38 1363.58,1445.01 1364.13,1443.53 1365.02,1441.44"/>
    </edge>
    <edge id=":1225440535_5" function="internal">
        <lane id=":1225440535_5_0" index="0" disallow="tram rail_urban rail rail_electric rail_fast ship" speed="5.09" length="4.94" shape="1361.50,1448.14 1363.86,1445.82 1365.32,1445.11"/>
    </edge>
    <edge id=":1225440535_7" function="internal">
        <lane id=":1225440535_7_0" index="0" disallow="tram rail_urban rail rail_electric rail_fast ship" speed="5.09" length="3.65" shape="1365.32,1445.11 1365.51,1445.02 1366.46,1445.73 1366.71,1447.96"/>
    </edge>
    <edge id=":1225440554_0" function="internal">
        <lane id=":1225440554_0_0" index="0" disallow="tram rail_urban rail rail_electric rail_fast ship" speed="8.29" length="10.92" shape="1360.20,1497.92 1356.45,1498.03 1353.55,1498.60 1351.51,1499.65 1350.33,1501.17"/>
    </edge>
    <edge id=":1225440554_1" function="internal">
        <lane id=":1225440554_1_0" index="0" disallow="tram rail_urban rail rail_electric rail_fast ship" speed="27.78" length="10.58" shape="1357.04,1493.12 1355.47,1495.76 1353.74,1497.17 1351.98,1498.57 1350.33,1501.17"/>
        <lane id=":1225440554_1_1" index="1" disallow="tram rail_urban rail rail_electric rail_fast ship" speed="27.78" length="10.58" shape="1354.06,1491.95 1352.50,1494.56 1350.78,1495.95 1349.03,1497.33 1347.39,1499.90"/>
    </edge>
    <edge id=":1225440556_0" function="internal">
        <lane id=":1225440556_0_0" index="0" disallow="tram rail_urban rail rail_electric rail_fast ship" speed="25.00" length="16.31" shape="1609.29,1460.77 1604.06,1461.51 1600.05,1462.16 1596.69,1463.00 1593.44,1464.29"/>
    </edge>
    <edge id=":1225440556_1" function="internal">
        <lane id=":1225440556_1_0" index="0" disallow="tram rail_urban rail rail_electric rail_fast ship" speed="27.78" length="17.25" shape="1609.29,1460.77 1592.98,1463.12"/>
        <lane id=":1225440556_1_1" index="1" disallow="tram rail_urban rail rail_electric rail_fast ship" speed="27.78" length="17.25" shape="1608.84,1457.60 1591.77,1460.06"/>
        <lane id=":1225440556_1_2" index="2" disallow="tram rail_urban rail rail_electric rail_fast ship" speed="27.78" length="17.25" shape="1608.38,1454.43 1590.56,1457.01"/>
    </edge>
    <edge id=":1225440556_4" function="internal">
        <lane id=":1225440556_4_0" index="0" disallow="tram rail_urban rail rail_electric rail_fast ship" speed="3.65" length="2.34" shape="1608.38,1454.43 1607.08,1453.81 1606.57,1453.08"/>
    </edge>
    <edge id=":1225440556_14" function="internal">
        <lane id=":1225440556_14_0" index="0" disallow="tram rail_urban rail rail_electric rail_fast ship" speed="3.65" length="2.34" shape="1606.57,1453.08 1606.85,1452.23 1607.92,1451.27"/>
    </edge>
    <edge id=":1225440556_5" function="internal">
        <lane id=":1225440556_5_0" index="0" disallow="tram rail_urban rail rail_electric rail_fast ship" speed="14.76" length="6.14" shape="1600.96,1445.06 1602.71,1445.45 1603.95,1445.47 1605.21,1445.25 1607.01,1444.93"/>
    </edge>
    <edge id=":1225440556_6" function="internal">
        <lane id=":1225440556_6_0" index="0" disallow="tram rail_urban rail rail_electric rail_fast ship" speed="8.60" length="27.31" shape="1600.96,1445.06 1605.90,1448.69 1605.22,1454.00 1600.54,1459.65 1593.44,1464.29"/>
    </edge>
    <edge id=":1225440556_7" function="internal">
        <lane id=":1225440556_7_0" index="0" disallow="tram rail_urban rail rail_electric rail_fast ship" speed="7.61" length="23.92" shape="1600.96,1445.06 1604.85,1448.33 1603.52,1453.04 1598.61,1457.50 1591.77,1460.06"/>
        <lane id=":1225440556_7_1" index="1" disallow="tram rail_urban rail rail_electric rail_fast ship" speed="7.22" length="21.37" shape="1600.96,1445.06 1604.13,1447.76 1602.20,1451.46 1597.05,1454.95 1590.56,1457.01"/>
    </edge>
    <edge id=":1225440556_9" function="internal">
        <lane id=":1225440556_9_0" index="0" disallow="tram rail_urban rail rail_electric rail_fast ship" speed="27.78" length="19.15" shape="1587.68,1447.72 1607.01,1444.93"/>
        <lane id=":1225440556_9_1" index="1" disallow="tram rail_urban rail rail_electric rail_fast ship" speed="27.78" length="19.15" shape="1588.51,1450.83 1607.46,1448.10"/>
        <lane id=":1225440556_9_2" index="2" disallow="tram rail_urban rail rail_electric rail_fast ship" speed="27.78" length="19.15" shape="1589.35,1453.95 1607.92,1451.27"/>
    </edge>
    <edge id=":1225440556_12" function="internal">
        <lane id=":1225440556_12_0" index="0" disallow="tram rail_urban rail rail_electric rail_fast ship" speed="6.11" length="4.29" shape="1589.35,1453.95 1593.35,1454.82 1593.48,1454.97"/>
    </edge>
    <edge id=":1225440556_13" function="internal">
        <lane id=":1225440556_13_0" index="0" disallow="tram rail_urban rail rail_electric rail_fast ship" speed="3.68" length="2.79" shape="1589.35,1453.95 1590.79,1454.26 1591.48,1454.87 1591.45,1455.26"/>
    </edge>
    <edge id=":1225440556_15" function="internal">
        <lane id=":1225440556_15_0" index="0" disallow="tram rail_urban rail rail_electric rail_fast ship" speed="6.11" length="11.15" shape="1593.48,1454.97 1595.78,1457.79 1596.02,1461.43 1593.44,1464.29"/>
    </edge>
    <edge id=":1225440556_16" function="internal">
        <lane id=":1225440556_16_0" index="0" disallow="tram rail_urban rail rail_electric rail_fast ship" speed="3.68" length="2.01" shape="1591.45,1455.26 1591.40,1455.79 1590.56,1457.01"/>
    </edge>
    <edge id=":1225440565_0" function="internal">
        <lane id=":1225440565_0_0" index="0" disallow="tram rail_urban rail rail_electric rail_fast ship" speed="22.22" length="6.45" shape="1409.35,1500.64 1407.44,1500.75 1406.13,1500.77 1404.82,1500.66 1402.92,1500.44"/>
    </edge>
    <edge id=":1225440565_1" function="internal">
        <lane id=":1225440565_1_0" index="0" disallow="tram rail_urban rail rail_electric rail_fast ship" speed="6.82" length="5.52" shape="1409.13,1497.44 1407.70,1497.39 1406.43,1497.01 1405.29,1496.31 1404.30,1495.28"/>
    </edge>
    <edge id=":1225440566_0" function="internal">
        <lane id=":1225440566_0_0" index="0" disallow="tram rail_urban rail rail_electric rail_fast ship" speed="17.01" length="6.33" shape="1412.35,1459.14 1414.11,1459.81 1415.34,1460.26 1416.61,1460.48 1418.46,1460.49"/>
    </edge>
    <edge id=":1225440566_1" function="internal">
        <lane id=":1225440566_1_0" index="0" disallow="tram rail_urban rail rail_electric rail_fast ship" speed="9.69" length="6.27" shape="1413.10,1463.34 1414.50,1462.09 1415.52,1461.24 1416.68,1460.72 1418.46,1460.49"/>
    </edge>
    <edge id=":1225440570_0" function="internal">
        <lane id=":1225440570_0_0" index="0" disallow="tram rail_urban rail rail_electric rail_fast ship" speed="27.78" length="4.24" shape="1477.03,1233.18 1476.62,1234.37 1476.32,1235.18 1475.99,1235.97 1475.48,1237.12"/>
    </edge>
    <edge id=":1225440570_1" function="internal">
        <lane id=":1225440570_1_0" index="0" disallow="tram rail_urban rail rail_electric rail_fast ship" speed="8.22" length="3.92" shape="1473.03,1232.01 1473.21,1233.15 1473.22,1233.96 1473.02,1234.74 1472.56,1235.80"/>
    </edge>
    <edge id=":2061377093_0" function="internal">
        <lane id=":2061377093_0_0" index="0" disallow="tram rail_urban rail rail_electric rail_fast ship" speed="27.78" length="24.44" shape="1272.25,1714.18 1275.24,1720.08 1278.09,1724.83 1281.31,1729.35 1285.38,1734.57"/>
        <lane id=":2061377093_0_1" index="1" disallow="tram rail_urban rail rail_electric rail_fast ship" speed="27.78" length="24.44" shape="1269.56,1715.97 1272.58,1721.89 1275.49,1726.71 1278.76,1731.30 1282.86,1736.54"/>
    </edge>
    <edge id=":2061377093_2" function="internal">
        <lane id=":2061377093_2_0" index="0" disallow="tram rail_urban rail rail_electric rail_fast ship" speed="27.78" length="24.61" shape="1269.56,1715.97 1273.28,1721.41 1277.56,1725.27 1281.74,1729.17 1285.17,1734.73"/>
    </edge>
    <edge id=":2061377093_3" function="internal">
        <lane id=":2061377093_3_0" index="0" disallow="tram rail_urban rail rail_electric rail_fast ship" speed="25.89" length="24.93" shape="1266.26,1718.79 1272.21,1721.91 1276.90,1725.30 1281.04,1729.39 1285.38,1734.57"/>
        <lane id=":2061377093_3_1" index="1" disallow="tram rail_urban rail rail_electric rail_fast ship" speed="25.73" length="24.93" shape="1263.80,1721.18 1269.74,1724.24 1274.41,1727.49 1278.54,1731.43 1282.86,1736.54"/>
    </edge>
    <edge id=":2061377093_5" function="internal">
        <lane id=":2061377093_5_0" index="0" disallow="tram rail_urban rail rail_electric rail_fast ship" speed="16.93" length="25.15" shape="1263.80,1721.18 1270.03,1724.07 1275.16,1727.07 1279.30,1731.03 1282.55,1736.79"/>
    </edge>
    <edge id=":3954267489_0" function="internal">
        <lane id=":3954267489_0_0" index="0" disallow="tram rail_urban rail rail_electric rail_fast ship" speed="5.92" length="9.10" shape="1960.89,1120.08 1959.45,1117.89 1957.78,1116.94 1955.88,1117.23 1953.75,1118.77"/>
    </edge>
    <edge id=":3954267489_1" function="internal">
        <lane id=":3954267489_1_0" index="0" disallow="tram rail_urban rail rail_electric rail_fast ship" speed="13.89" length="14.76" shape="1960.89,1120.08 1954.61,1106.73"/>
        <lane id=":3954267489_1_1" index="1" disallow="tram rail_urban rail rail_electric rail_fast ship" speed="13.89" length="14.76" shape="1963.79,1118.72 1957.50,1105.37"/>
    </edge>
    <edge id=":3954267489_3" function="internal">
        <lane id=":3954267489_3_0" index="0" disallow="tram rail_urban rail rail_electric rail_fast ship" speed="3.65" length="2.34" shape="1963.79,1118.72 1964.00,1117.30 1964.55,1116.59"/>
    </edge>
    <edge id=":3954267489_11" function="internal">
        <lane id=":3954267489_11_0" index="0" disallow="tram rail_urban rail rail_electric rail_fast ship" speed="3.65" length="2.34" shape="1964.55,1116.59 1965.45,1116.61 1966.68,1117.36"/>
    </edge>
    <edge id=":3954267489_4" function="internal">
        <lane id=":3954267489_4_0" index="0" disallow="tram rail_urban rail rail_electric rail_fast ship" speed="13.89" length="14.76" shape="1963.29,1102.64 1969.58,1116.00"/>
        <lane id=":3954267489_4_1" index="1" disallow="tram rail_urban rail rail_electric rail_fast ship" speed="13.89" length="14.76" shape="1960.40,1104.00 1966.68,1117.36"/>
    </edge>
    <edge id=":3954267489_6" function="internal">
        <lane id=":3954267489_6_0" index="0" disallow="tram rail_urban rail rail_electric rail_fast ship" speed="10.02" length="4.44" shape="1960.40,1104.00 1961.00,1107.08 1960.67,1108.34"/>
    </edge>
    <edge id=":3954267489_7" function="internal">
        <lane id=":3954267489_7_0" index="0" disallow="tram rail_urban rail rail_electric rail_fast ship" speed="3.65" length="2.34" shape="1960.40,1104.00 1960.19,1105.43 1959.63,1106.13"/>
    </edge>
    <edge id=":3954267489_12" function="internal">
        <lane id=":3954267489_12_0" index="0" disallow="tram rail_urban rail rail_electric rail_fast ship" speed="10.02" length="12.71" shape="1960.67,1108.34 1960.09,1110.57 1957.67,1114.47 1953.75,1118.77"/>
    </edge>
    <edge id=":3954267489_13" function="internal">
        <lane id=":3954267489_13_0" index="0" disallow="tram rail_urban rail rail_electric rail_fast ship" speed="3.65" length="2.34" shape="1959.63,1106.13 1958.74,1106.11 1957.50,1105.37"/>
    </edge>
    <edge id=":3954267489_8" function="internal">
        <lane id=":3954267489_8_0" index="0" disallow="tram rail_urban rail rail_electric rail_fast ship" speed="8.10" length="10.93" shape="1951.53,1116.46 1953.70,1113.95 1954.93,1111.49 1955.24,1109.08 1954.61,1106.73"/>
    </edge>
    <edge id=":3954267489_9" function="internal">
        <lane id=":3954267489_9_0" index="0" disallow="tram rail_urban rail rail_electric rail_fast ship" speed="8.25" length="18.92" shape="1951.53,1116.46 1956.28,1112.86 1960.39,1111.81 1963.85,1113.31 1966.68,1117.36"/>
    </edge>
    <edge id=":3954267489_10" function="internal">
        <lane id=":3954267489_10_0" index="0" disallow="tram rail_urban rail rail_electric rail_fast ship" speed="3.65" length="2.56" shape="1951.53,1116.46 1952.95,1116.21 1953.79,1116.50 1953.86,1116.72"/>
    </edge>
    <edge id=":3954267489_14" function="internal">
        <lane id=":3954267489_14_0" index="0" disallow="tram rail_urban rail rail_electric rail_fast ship" speed="3.65" length="2.12" shape="1953.86,1116.72 1954.06,1117.36 1953.75,1118.77"/>
    </edge>
    <edge id=":3954267495_0" function="internal">
        <lane id=":3954267495_0_0" index="0" disallow="tram rail_urban rail rail_electric rail_fast ship" speed="11.18" length="9.44" shape="1821.48,1255.15 1819.99,1252.81 1818.70,1251.33 1817.06,1250.30 1814.48,1249.31"/>
    </edge>
    <edge id=":3954267495_1" function="internal">
        <lane id=":3954267495_1_0" index="0" disallow="tram rail_urban rail rail_electric rail_fast ship" speed="8.08" length="4.81" shape="1821.48,1255.15 1820.20,1252.25 1820.07,1250.62"/>
    </edge>
    <edge id=":3954267495_2" function="internal">
        <lane id=":3954267495_2_0" index="0" disallow="tram rail_urban rail rail_electric rail_fast ship" speed="3.65" length="2.34" shape="1821.48,1255.15 1821.53,1253.71 1822.01,1252.95"/>
    </edge>
    <edge id=":3954267495_9" function="internal">