<?xml version="1.0" encoding="UTF-8"?>

<!-- generated on 2021-06-05 08:31:22 by Eclipse SUMO duarouter Version 1.9.1
<configuration xmlns:xsi="http://www.w3.org/2001/XMLSchema-instance" xsi:noNamespaceSchemaLocation="http://sumo.dlr.de/xsd/duarouterConfiguration.xsd">

    <input>
        <net-file value="/home/jk/Bs/sumo-rl/2021-06-05-08-31-18/osm.net.xml"/>
        <route-files value="/home/jk/Bs/sumo-rl/2021-06-05-08-31-18/osm.passenger.trips.xml"/>
    </input>

    <output>
        <output-file value="/home/jk/Bs/sumo-rl/2021-06-05-08-31-18/osm.passenger.trips.xml.tmp"/>
        <write-trips value="true"/>
    </output>

    <time>
        <begin value="0"/>
        <end value="3600"/>
    </time>

    <report>
        <no-warnings value="true"/>
        <ignore-errors value="true"/>
        <no-step-log value="true"/>
    </report>

</configuration>
-->

<routes xmlns:xsi="http://www.w3.org/2001/XMLSchema-instance" xsi:noNamespaceSchemaLocation="http://sumo.dlr.de/xsd/routes_file.xsd">
    <vType id="veh_passenger" vClass="passenger"/>
    <trip id="veh0" type="veh_passenger" depart="0.00" departLane="best" from="554658425" to="537470137#0"/>
    <trip id="veh2" type="veh_passenger" depart="13.41" departLane="best" from="37395951#2" to="-480013008#0"/>
    <trip id="veh3" type="veh_passenger" depart="20.12" departLane="best" departSpeed="max" from="-537470134#1" to="507449297"/>
    <trip id="veh4" type="veh_passenger" depart="26.83" departLane="best" from="537300953" to="507449297"/>
    <trip id="veh5" type="veh_passenger" depart="33.53" departLane="best" departSpeed="max" from="-537470134#1" to="537300951#1"/>
    <trip id="veh6" type="veh_passenger" depart="40.24" departLane="best" from="59150733#1" to="554658425"/>
    <trip id="veh7" type="veh_passenger" depart="46.94" departLane="best" departSpeed="max" from="37395951#0" to="-537470132#2"/>
    <trip id="veh8" type="veh_passenger" depart="53.65" departLane="best" departSpeed="max" from="-195718957#3" to="-537300953"/>
    <trip id="veh10" type="veh_passenger" depart="67.06" departLane="best" from="59150733#1" to="554663655"/>
    <trip id="veh12" type="veh_passenger" depart="80.48" departLane="best" from="537470132#1" to="-537300949#2"/>
    <trip id="veh13" type="veh_passenger" depart="87.18" departLane="best" departSpeed="max" from="-537470134#1" to="195718957#3"/>
    <trip id="veh14" type="veh_passenger" depart="93.89" departLane="best" departSpeed="max" from="-195718957#3" to="195718957#2"/>
    <trip id="veh15" type="veh_passenger" depart="100.59" departLane="best" from="-480013008#0" to="195718957#3"/>
    <trip id="veh16" type="veh_passenger" depart="107.30" departLane="best" departSpeed="max" from="37395951#0" to="195718957#1"/>
    <trip id="veh17" type="veh_passenger" depart="114.01" departLane="best" from="775219811" to="537470134#0"/>
    <trip id="veh18" type="veh_passenger" depart="120.71" departLane="best" departSpeed="max" from="507449293" to="537470137#1"/>
    <trip id="veh20" type="veh_passenger" depart="134.13" departLane="best" from="195718957#2" to="195718957#3"/>
    <trip id="veh21" type="veh_passenger" depart="140.83" departLane="best" departSpeed="max" from="-537470134#1" to="772657041"/>
    <trip id="veh22" type="veh_passenger" depart="147.54" departLane="best" from="537452098" to="480013008#0"/>
    <trip id="veh23" type="veh_passenger" depart="154.24" departLane="best" from="656614697" to="507449295"/>
    <trip id="veh24" type="veh_passenger" depart="160.95" departLane="best" from="-59150732#1" to="195718957#3"/>
    <trip id="veh25" type="veh_passenger" depart="167.66" departLane="best" departSpeed="max" from="507449293" to="195718957#3"/>
    <trip id="veh28" type="veh_passenger" depart="187.78" departLane="best" departSpeed="max" from="-195718957#3" to="-537300949#2"/>
    <trip id="veh29" type="veh_passenger" depart="194.48" departLane="best" departSpeed="max" from="-195718957#3" to="480013005"/>
    <trip id="veh33" type="veh_passenger" depart="221.31" departLane="best" from="554658426" to="507449297"/>
    <trip id="veh34" type="veh_passenger" depart="228.01" departLane="best" from="-195718957#2" to="772657041"/>
    <trip id="veh35" type="veh_passenger" depart="234.72" departLane="best" departSpeed="max" from="-195718957#3" to="507449296#1"/>
    <trip id="veh36" type="veh_passenger" depart="241.43" departLane="best" departSpeed="max" from="-195718957#3" to="554663655"/>
    <trip id="veh37" type="veh_passenger" depart="248.13" departLane="best" from="554658431" to="-537470132#0"/>
    <trip id="veh38" type="veh_passenger" depart="254.84" departLane="best" from="480013005" to="507449297"/>
    <trip id="veh40" type="veh_passenger" depart="268.25" departLane="best" departSpeed="max" from="507449293" to="554663655"/>
    <trip id="veh41" type="veh_passenger" depart="274.96" departLane="best" from="-537470132#2" to="37395951#2"/>
    <trip id="veh43" type="veh_passenger" depart="288.37" departLane="best" from="471664440#0" to="507449297"/>
    <trip id="veh44" type="veh_passenger" depart="295.08" departLane="best" departSpeed="max" from="37395951#0" to="537300951#1"/>
    <trip id="veh45" type="veh_passenger" depart="301.78" departLane="best" departSpeed="max" from="-537470134#1" to="195718957#1"/>
    <trip id="veh46" type="veh_passenger" depart="308.49" departLane="best" departSpeed="max" from="-195718957#3" to="537470132#2"/>
    <trip id="veh48" type="veh_passenger" depart="321.90" departLane="best" departSpeed="max" from="-195718957#3" to="495352120"/>
    <trip id="veh49" type="veh_passenger" depart="328.61" departLane="best" from="37395951#2" to="507449295"/>
    <trip id="veh51" type="veh_passenger" depart="342.02" departLane="best" from="37395951#2" to="195718957#3"/>
    <trip id="veh52" type="veh_passenger" depart="348.73" departLane="best" departSpeed="max" from="507449293" to="-537300949#2"/>
    <trip id="veh54" type="veh_passenger" depart="362.14" departLane="best" from="-59150732#1" to="554663655"/>
    <trip id="veh55" type="veh_passenger" depart="368.85" departLane="best" from="-537300951#2" to="195718957#3"/>
    <trip id="veh56" type="veh_passenger" depart="375.55" departLane="best" departSpeed="max" from="507449293" to="554663655"/>
    <trip id="veh57" type="veh_passenger" depart="382.26" departLane="best" departSpeed="max" from="-195718957#3" to="537300951#0"/>
    <trip id="veh59" type="veh_passenger" depart="395.67" departLane="best" departSpeed="max" from="-195718957#3" to="-59150732#1"/>
    <trip id="veh60" type="veh_passenger" depart="402.38" departLane="best" from="537300949#0" to="537470134#1"/>
    <trip id="veh62" type="veh_passenger" depart="415.79" departLane="best" from="-537470134#0" to="554658431"/>
    <trip id="veh63" type="veh_passenger" depart="422.50" departLane="best" departSpeed="max" from="537470132#0" to="37395951#1"/>
    <trip id="veh64" type="veh_passenger" depart="429.20" departLane="best" departSpeed="max" from="-195718957#3" to="507449295"/>
    <trip id="veh65" type="veh_passenger" depart="435.91" departLane="best" departSpeed="max" from="-195718957#3" to="195718957#1"/>
    <trip id="veh66" type="veh_passenger" depart="442.62" departLane="best" departSpeed="max" from="37395951#0" to="-537470134#0"/>
    <trip id="veh67" type="veh_passenger" depart="449.32" departLane="best" from="-537300950#1" to="-537470132#0"/>
    <trip id="veh68" type="veh_passenger" depart="456.03" departLane="best" from="-480013008#1" to="537300949#0"/>
    <trip id="veh69" type="veh_passenger" depart="462.73" departLane="best" from="537300951#2" to="195718957#3"/>
    <trip id="veh72" type="veh_passenger" depart="482.85" departLane="best" from="37395951#2" to="195718957#3"/>
    <trip id="veh73" type="veh_passenger" depart="489.56" departLane="best" from="537300951#2" to="195718957#3"/>
    <trip id="veh74" type="veh_passenger" depart="496.27" departLane="best" from="554658425" to="507449297"/>
    <trip id="veh77" type="veh_passenger" depart="516.39" departLane="best" from="-537300951#1" to="-537470132#0"/>
    <trip id="veh81" type="veh_passenger" depart="543.21" departLane="best" from="-537470137#0" to="-537452098"/>
    <trip id="veh84" type="veh_passenger" depart="563.33" departLane="best" from="-195718957#2" to="554663655"/>
    <trip id="veh85" type="veh_passenger" depart="570.04" departLane="best" departSpeed="max" from="37395951#0" to="772657041"/>
    <trip id="veh87" type="veh_passenger" depart="583.45" departLane="best" from="59150733#1" to="195718957#3"/>
    <trip id="veh88" type="veh_passenger" depart="590.15" departLane="best" from="59150641#1" to="-537452099"/>
    <trip id="veh90" type="veh_passenger" depart="603.57" departLane="best" from="772657044" to="195718957#3"/>
    <trip id="veh91" type="veh_passenger" depart="610.27" departLane="best" from="772657041" to="-537470132#0"/>
    <trip id="veh92" type="veh_passenger" depart="616.98" departLane="best" from="772657044" to="-59150732#0"/>
    <trip id="veh93" type="veh_passenger" depart="623.69" departLane="best" from="772657043" to="195718957#3"/>
    <trip id="veh94" type="veh_passenger" depart="630.39" departLane="best" from="537470137#0" to="37395951#2"/>
    <trip id="veh95" type="veh_passenger" depart="637.10" departLane="best" from="537300950#0" to="507449297"/>
    <trip id="veh96" type="veh_passenger" depart="643.81" departLane="best" from="554658425" to="537470134#1"/>
    <trip id="veh98" type="veh_passenger" depart="657.22" departLane="best" from="537470134#0" to="37395951#1"/>
    <trip id="veh99" type="veh_passenger" depart="663.92" departLane="best" from="37395951#1" to="195718957#3"/>
    <trip id="veh101" type="veh_passenger" depart="677.34" departLane="best" from="195718957#1" to="507449297"/>
    <trip id="veh102" type="veh_passenger" depart="684.04" departLane="best" from="-195718957#1" to="195718957#3"/>
    <trip id="veh103" type="veh_passenger" depart="690.75" departLane="best" from="537452098" to="507449295"/>
    <trip id="veh104" type="veh_passenger" depart="697.46" departLane="best" departSpeed="max" from="-195718957#3" to="507449297"/>
    <trip id="veh106" type="veh_passenger" depart="710.87" departLane="best" departSpeed="max" from="537470132#0" to="195718957#2"/>
    <trip id="veh108" type="veh_passenger" depart="724.28" departLane="best" from="37395951#2" to="537470132#1"/>
    <trip id="veh109" type="veh_passenger" depart="730.99" departLane="best" from="-537470132#1" to="554658425"/>
    <trip id="veh110" type="veh_passenger" depart="737.69" departLane="best" from="480013008#1" to="195718957#3"/>
    <trip id="veh111" type="veh_passenger" depart="744.40" departLane="best" departSpeed="max" from="507449293" to="-537300949#2"/>
    <trip id="veh113" type="veh_passenger" depart="757.81" departLane="best" departSpeed="max" from="537470132#0" to="775219811"/>
    <trip id="veh114" type="veh_passenger" depart="764.52" departLane="best" from="537300949#0" to="772657041"/>
    <trip id="veh116" type="veh_passenger" depart="777.93" departLane="best" from="537470134#0" to="507449297"/>
    <trip id="veh118" type="veh_passenger" depart="791.34" departLane="best" from="480013005" to="195718957#3"/>
    <trip id="veh119" type="veh_passenger" depart="798.05" departLane="best" from="537300951#1" to="195718957#3"/>
    <trip id="veh120" type="veh_passenger" depart="804.76" departLane="best" departSpeed="max" from="-537470134#1" to="554658425"/>
    <trip id="veh121" type="veh_passenger" depart="811.46" departLane="best" from="537470132#1" to="-537300950#1"/>
    <trip id="veh122" type="veh_passenger" depart="818.17" departLane="best" from="37395951#2" to="507449297"/>
    <trip id="veh123" type="veh_passenger" depart="824.88" departLane="best" departSpeed="max" from="37395951#0" to="-195718957#1"/>
    <trip id="veh124" type="veh_passenger" depart="831.58" departLane="best" departSpeed="max" from="507449293" to="537300952"/>
    <trip id="veh125" type="veh_passenger" depart="838.29" departLane="best" departSpeed="max" from="-537470134#1" to="195718957#1"/>
    <trip id="veh126" type="veh_passenger" depart="844.99" departLane="best" from="471664440#0" to="-480013008#0"/>
    <trip id="veh127" type="veh_passenger" depart="851.70" departLane="best" departSpeed="max" from="37395951#0" to="537470137#0"/>
    <trip id="veh128" type="veh_passenger" depart="858.41" departLane="best" from="37395951#2" to="-537470137#0"/>
    <trip id="veh129" type="veh_passenger" depart="865.11" departLane="best" from="471664441#0" to="-537470132#0"/>
    <trip id="veh130" type="veh_passenger" depart="871.82" departLane="best" from="537300951#0" to="-480013008#0"/>
    <trip id="veh131" type="veh_passenger" depart="878.53" departLane="best" from="-537300950#1" to="507449295"/>
    <trip id="veh132" type="veh_passenger" depart="885.23" departLane="best" departSpeed="max" from="-195718957#3" to="480013005"/>
    <trip id="veh133" type="veh_passenger" depart="891.94" departLane="best" departSpeed="max" from="-537470134#1" to="37395951#2"/>
    <trip id="veh134" type="veh_passenger" depart="898.64" departLane="best" from="-195718957#2" to="507449297"/>
    <trip id="veh136" type="veh_passenger" depart="912.06" departLane="best" from="-195718957#2" to="-537470132#2"/>
    <trip id="veh137" type="veh_passenger" depart="918.76" departLane="best" from="-537300950#0" to="537470134#1"/>
    <trip id="veh138" type="veh_passenger" depart="925.47" departLane="best" departSpeed="max" from="507449293" to="195718957#1"/>
    <trip id="veh139" type="veh_passenger" depart="932.18" departLane="best" departSpeed="max" from="537470132#0" to="554663655"/>
    <trip id="veh140" type="veh_passenger" depart="938.88" departLane="best" from="554658425" to="-537470132#0"/>
    <trip id="veh141" type="veh_passenger" depart="945.59" departLane="best" from="772657043" to="480013008#1"/>
    <trip id="veh142" type="veh_passenger" depart="952.29" departLane="best" from="537470132#2" to="-537300951#1"/>
    <trip id="veh143" type="veh_passenger" depart="959.00" departLane="best" from="-480013008#0" to="554663655"/>
    <trip id="veh145" type="veh_passenger" depart="972.41" departLane="best" departSpeed="max" from="507449293" to="471664440#0"/>
    <trip id="veh150" type="veh_passenger" depart="1005.95" departLane="best" departSpeed="max" from="37395951#0" to="-480013008#0"/>
    <trip id="veh153" type="veh_passenger" depart="1026.06" departLane="best" departSpeed="max" from="537470132#0" to="195718957#3"/>
    <trip id="veh154" type="veh_passenger" depart="1032.77" departLane="best" departSpeed="max" from="-195718957#3" to="554658431"/>
    <trip id="veh155" type="veh_passenger" depart="1039.48" departLane="best" from="480013008#0" to="554663655"/>
    <trip id="veh156" type="veh_passenger" depart="1046.18" departLane="best" departSpeed="max" from="-195718957#3" to="195718957#2"/>
    <trip id="veh157" type="veh_passenger" depart="1052.89" departLane="best" departSpeed="max" from="537470132#0" to="37395951#1"/>
    <trip id="veh158" type="veh_passenger" depart="1059.60" departLane="best" departSpeed="max" from="507449293" to="495352120"/>
    <trip id="veh159" type="veh_passenger" depart="1066.30" departLane="best" from="537470132#1" to="195718957#3"/>
    <trip id="veh160" type="veh_passenger" depart="1073.01" departLane="best" departSpeed="max" from="507449293" to="554663655"/>
    <trip id="veh161" type="veh_passenger" depart="1079.71" departLane="best" from="480013005" to="554658431"/>
    <trip id="veh162" type="veh_passenger" depart="1086.42" departLane="best" from="772657044" to="507449297"/>
    <trip id="veh163" type="veh_passenger" depart="1093.13" departLane="best" from="-537470132#1" to="195718957#2"/>
    <trip id="veh164" type="veh_passenger" depart="1099.83" departLane="best" departSpeed="max" from="507449293" to="195718957#3"/>
    <trip id="veh167" type="veh_passenger" depart="1119.95" departLane="best" from="471664441#0" to="507449295"/>
    <trip id="veh169" type="veh_passenger" depart="1133.37" departLane="best" departSpeed="max" from="-195718957#3" to="537470132#1"/>
    <trip id="veh170" type="veh_passenger" depart="1140.07" departLane="best" departSpeed="max" from="-195718957#3" to="-537470132#1"/>
    <trip id="veh171" type="veh_passenger" depart="1146.78" departLane="best" departSpeed="max" from="507449293" to="37395951#1"/>
    <trip id="veh173" type="veh_passenger" depart="1160.19" departLane="best" from="537452099" to="-537470134#0"/>
    <trip id="veh174" type="veh_passenger" depart="1166.90" departLane="best" from="-195718957#1" to="507449295"/>
    <trip id="veh175" type="veh_passenger" depart="1173.60" departLane="best" from="537300949#0" to="195718957#3"/>
    <trip id="veh176" type="veh_passenger" depart="1180.31" departLane="best" departSpeed="max" from="-537470134#1" to="554658426"/>
    <trip id="veh177" type="veh_passenger" depart="1187.02" departLane="best" departSpeed="max" from="537470132#0" to="684516283"/>
    <trip id="veh178" type="veh_passenger" depart="1193.72" departLane="best" from="37395951#2" to="507449297"/>
    <trip id="veh180" type="veh_passenger" depart="1207.13" departLane="best" from="-772657042" to="-537470132#0"/>
    <trip id="veh181" type="veh_passenger" depart="1213.84" departLane="best" departSpeed="max" from="537470132#0" to="554658425"/>
    <trip id="veh182" type="veh_passenger" depart="1220.55" departLane="best" from="772657041" to="507449297"/>
    <trip id="veh183" type="veh_passenger" depart="1227.25" departLane="best" from="480013008#1" to="-537300951#2"/>
    <trip id="veh184" type="veh_passenger" depart="1233.96" departLane="best" departSpeed="max" from="-195718957#3" to="495352120"/>
    <trip id="veh185" type="veh_passenger" depart="1240.67" departLane="best" departSpeed="max" from="37395951#0" to="195718957#3"/>
    <trip id="veh186" type="veh_passenger" depart="1247.37" departLane="best" departSpeed="max" from="-195718957#3" to="772657043"/>
    <trip id="veh187" type="veh_passenger" depart="1254.08" departLane="best" departSpeed="max" from="537470132#0" to="195718957#3"/>
    <trip id="veh188" type="veh_passenger" depart="1260.78" departLane="best" departSpeed="max" from="-195718957#3" to="554663655"/>
    <trip id="veh189" type="veh_passenger" depart="1267.49" departLane="best" from="471664441#0" to="537470134#1"/>
    <trip id="veh190" type="veh_passenger" depart="1274.20" departLane="best" from="480013008#0" to="-537300953"/>
    <trip id="veh193" type="veh_passenger" depart="1294.32" departLane="best" departSpeed="max" from="37395951#0" to="772657044"/>
    <trip id="veh194" type="veh_passenger" depart="1301.02" departLane="best" from="37395951#2" to="507449297"/>
    <trip id="veh195" type="veh_passenger" depart="1307.73" departLane="best" from="775219811" to="537470134#1"/>
    <trip id="veh196" type="veh_passenger" depart="1314.44" departLane="best" departSpeed="max" from="507449293" to="495352120"/>
    <trip id="veh197" type="veh_passenger" depart="1321.14" departLane="best" from="554658426" to="537470132#1"/>
    <trip id="veh198" type="veh_passenger" depart="1327.85" departLane="best" departSpeed="max" from="507449293" to="684516283"/>
    <trip id="veh199" type="veh_passenger" depart="1334.55" departLane="best" from="537300950#0" to="195718957#3"/>
    <trip id="veh200" type="veh_passenger" depart="1341.26" departLane="best" from="-537300951#2" to="507449297"/>
    <trip id="veh201" type="veh_passenger" depart="1347.97" departLane="best" departSpeed="max" from="507449293" to="-537300953"/>
    <trip id="veh202" type="veh_passenger" depart="1354.67" departLane="best" from="471664441#0" to="-537470132#0"/>
    <trip id="veh204" type="veh_passenger" depart="1368.09" departLane="best" from="537470134#0" to="507449297"/>
    <trip id="veh206" type="veh_passenger" depart="1381.50" departLane="best" from="775219811" to="195718957#3"/>
    <trip id="veh207" type="veh_passenger" depart="1388.20" departLane="best" departSpeed="max" from="507449293" to="480013005"/>
    <trip id="veh209" type="veh_passenger" depart="1401.62" departLane="best" from="-59150733#1" to="554663655"/>
    <trip id="veh210" type="veh_passenger" depart="1408.32" departLane="best" from="-656614697" to="195718957#3"/>
    <trip id="veh212" type="veh_passenger" depart="1421.74" departLane="best" departSpeed="max" from="507449293" to="471664440#0"/>
    <trip id="veh213" type="veh_passenger" depart="1428.44" departLane="best" from="-537470132#1" to="554658425"/>
    <trip id="veh214" type="veh_passenger" depart="1435.15" departLane="best" from="507449296#1" to="195718957#2"/>
    <trip id="veh215" type="veh_passenger" depart="1441.85" departLane="best" from="554658431" to="-537300949#0"/>
    <trip id="veh216" type="veh_passenger" depart="1448.56" departLane="best" from="59150733#1" to="480013005"/>
    <trip id="veh217" type="veh_passenger" depart="1455.27" departLane="best" from="537452099" to="59150733#1"/>
    <trip id="veh218" type="veh_passenger" depart="1461.97" departLane="best" departSpeed="max" from="-195718957#3" to="507449297"/>
    <trip id="veh221" type="veh_passenger" depart="1482.09" departLane="best" from="537452098" to="-537470132#2"/>
    <trip id="veh223" type="veh_passenger" depart="1495.51" departLane="best" from="537470134#0" to="554663655"/>
    <trip id="veh225" type="veh_passenger" depart="1508.92" departLane="best" departSpeed="max" from="-195718957#3" to="537470132#2"/>
    <trip id="veh229" type="veh_passenger" depart="1535.74" departLane="best" departSpeed="max" from="-195718957#3" to="59150641#0"/>
    <trip id="veh230" type="veh_passenger" depart="1542.45" departLane="best" from="-537300951#0" to="507449297"/>
    <trip id="veh232" type="veh_passenger" depart="1555.86" departLane="best" from="-537300951#0" to="507449295"/>
    <trip id="veh233" type="veh_passenger" depart="1562.57" departLane="best" from="-537470137#1" to="195718957#3"/>
    <trip id="veh235" type="veh_passenger" depart="1575.98" departLane="best" from="-537300951#2" to="507449295"/>
    <trip id="veh236" type="veh_passenger" depart="1582.69" departLane="best" departSpeed="max" from="37395951#0" to="537300951#1"/>
    <trip id="veh238" type="veh_passenger" depart="1596.10" departLane="best" from="480013005" to="195718957#3"/>
    <trip id="veh239" type="veh_passenger" depart="1602.81" departLane="best" from="507449296#1" to="537300950#1"/>
    <trip id="veh240" type="veh_passenger" depart="1609.51" departLane="best" from="775219811" to="195718957#3"/>
    <trip id="veh241" type="veh_passenger" depart="1616.22" departLane="best" from="772657044" to="537470134#1"/>
    <trip id="veh242" type="veh_passenger" depart="1622.93" departLane="best" departSpeed="max" from="537470132#0" to="554663655"/>
    <trip id="veh243" type="veh_passenger" depart="1629.63" departLane="best" departSpeed="max" from="-195718957#3" to="537300953"/>
    <trip id="veh246" type="veh_passenger" depart="1649.75" departLane="best" from="-537452098" to="-537470132#0"/>
    <trip id="veh250" type="veh_passenger" depart="1676.58" departLane="best" from="59150733#1" to="554663655"/>
    <trip id="veh251" type="veh_passenger" depart="1683.28" departLane="best" departSpeed="max" from="37395951#0" to="-537470132#0"/>
    <trip id="veh252" type="veh_passenger" depart="1689.99" departLane="best" from="772657043" to="-537470132#0"/>
    <trip id="veh253" type="veh_passenger" depart="1696.69" departLane="best" from="-195718957#2" to="507449297"/>
    <trip id="veh254" type="veh_passenger" depart="1703.40" departLane="best" from="471664440#1" to="537470134#1"/>
    <trip id="veh255" type="veh_passenger" depart="1710.11" departLane="best" departSpeed="max" from="537470132#0" to="537300951#1"/>
    <trip id="veh256" type="veh_passenger" depart="1716.81" departLane="best" from="-480013008#1" to="195718957#3"/>
    <trip id="veh259" type="veh_passenger" depart="1736.93" departLane="best" departSpeed="max" from="-537470134#1" to="-537300950#1"/>
    <trip id="veh260" type="veh_passenger" depart="1743.64" departLane="best" from="195718957#1" to="507449297"/>
    <trip id="veh262" type="veh_passenger" depart="1757.05" departLane="best" from="-537300950#1" to="507449295"/>
    <trip id="veh263" type="veh_passenger" depart="1763.76" departLane="best" departSpeed="max" from="537470132#0" to="554663655"/>
    <trip id="veh264" type="veh_passenger" depart="1770.46" departLane="best" from="554658425" to="-537470132#2"/>
    <trip id="veh265" type="veh_passenger" depart="1777.17" departLane="best" from="772657043" to="-480013008#1"/>
    <trip id="veh266" type="veh_passenger" depart="1783.88" departLane="best" departSpeed="max" from="37395951#0" to="507449295"/>
    <trip id="veh267" type="veh_passenger" depart="1790.58" departLane="best" departSpeed="max" from="37395951#0" to="480013008#1"/>
    <trip id="veh269" type="veh_passenger" depart="1804.00" departLane="best" from="537452099" to="537470134#0"/>
    <trip id="veh270" type="veh_passenger" depart="1810.70" departLane="best" from="59150641#1" to="195718957#3"/>
    <trip id="veh271" type="veh_passenger" depart="1817.41" departLane="best" departSpeed="max" from="-195718957#3" to="554663655"/>
    <trip id="veh274" type="veh_passenger" depart="1837.53" departLane="best" from="-537300951#0" to="-537470132#0"/>
    <trip id="veh275" type="veh_passenger" depart="1844.23" departLane="best" from="-195718957#2" to="554663655"/>
    <trip id="veh276" type="veh_passenger" depart="1850.94" departLane="best" departSpeed="max" from="-537470134#1" to="37395951#2"/>
    <trip id="veh277" type="veh_passenger" depart="1857.65" departLane="best" from="554658425" to="507449297"/>
    <trip id="veh278" type="veh_passenger" depart="1864.35" departLane="best" from="554658425" to="507449296#1"/>
    <trip id="veh280" type="veh_passenger" depart="1877.76" departLane="best" from="480013005" to="480013008#1"/>
    <trip id="veh281" type="veh_passenger" depart="1884.47" departLane="best" departSpeed="max" from="-195718957#3" to="537300953"/>
    <trip id="veh282" type="veh_passenger" depart="1891.18" departLane="best" from="537300951#2" to="507449297"/>
    <trip id="veh285" type="veh_passenger" depart="1911.30" departLane="best" departSpeed="max" from="37395951#0" to="507449295"/>
    <trip id="veh286" type="veh_passenger" depart="1918.00" departLane="best" from="37395951#2" to="537470134#1"/>
    <trip id="veh287" type="veh_passenger" depart="1924.71" departLane="best" departSpeed="max" from="37395951#0" to="-537470132#2"/>
    <trip id="veh289" type="veh_passenger" depart="1938.12" departLane="best" departSpeed="max" from="-195718957#3" to="554663655"/>
    <trip id="veh290" type="veh_passenger" depart="1944.83" departLane="best" from="59150733#1" to="537300949#0"/>
    <trip id="veh291" type="veh_passenger" depart="1951.53" departLane="best" from="507449296#1" to="537300949#2"/>
    <trip id="veh292" type="veh_passenger" depart="1958.24" departLane="best" departSpeed="max" from="37395951#0" to="-537470132#0"/>
    <trip id="veh293" type="veh_passenger" depart="1964.95" departLane="best" departSpeed="max" from="37395951#0" to="537470134#1"/>
    <trip id="veh294" type="veh_passenger" depart="1971.65" departLane="best" from="537470134#0" to="772657044"/>
    <trip id="veh297" type="veh_passenger" depart="1991.77" departLane="best" from="537300952" to="-480013008#0"/>
    <trip id="veh298" type="veh_passenger" depart="1998.48" departLane="best" from="537470132#1" to="37395951#1"/>
    <trip id="veh299" type="veh_passenger" depart="2005.18" departLane="best" departSpeed="max" from="37395951#0" to="-195718957#1"/>
    <trip id="veh300" type="veh_passenger" depart="2011.89" departLane="best" from="37395951#1" to="-537470132#0"/>
    <trip id="veh301" type="veh_passenger" depart="2018.60" departLane="best" from="537300951#2" to="-480013008#0"/>
    <trip id="veh302" type="veh_passenger" depart="2025.30" departLane="best" departSpeed="max" from="37395951#0" to="554658431"/>
    <trip id="veh303" type="veh_passenger" depart="2032.01" departLane="best" departSpeed="max" from="-195718957#3" to="-537300950#0"/>
    <trip id="veh304" type="veh_passenger" depart="2038.72" departLane="best" departSpeed="max" from="537470132#0" to="195718957#3"/>
    <trip id="veh305" type="veh_passenger" depart="2045.42" departLane="best" from="537452099" to="507449296#1"/>
    <trip id="veh306" type="veh_passenger" depart="2052.13" departLane="best" from="471664440#0" to="195718957#3"/>
    <trip id="veh307" type="veh_passenger" depart="2058.83" departLane="best" from="554658426" to="-537470132#0"/>
    <trip id="veh308" type="veh_passenger" depart="2065.54" departLane="best" from="37395951#2" to="195718957#3"/>
    <trip id="veh309" type="veh_passenger" depart="2072.25" departLane="best" departSpeed="max" from="537470132#0" to="-537300949#0"/>
    <trip id="veh310" type="veh_passenger" depart="2078.95" departLane="best" from="-537470137#1" to="37395951#2"/>
    <trip id="veh313" type="veh_passenger" depart="2099.07" departLane="best" departSpeed="max" from="-195718957#3" to="-195718957#2"/>
    <trip id="veh315" type="veh_passenger" depart="2112.49" departLane="best" from="507449296#1" to="537300950#1"/>
    <trip id="veh316" type="veh_passenger" depart="2119.19" departLane="best" departSpeed="max" from="37395951#0" to="59150641#1"/>
    <trip id="veh318" type="veh_passenger" depart="2132.60" departLane="best" from="-537300953" to="507449297"/>
    <trip id="veh319" type="veh_passenger" depart="2139.31" departLane="best" from="-537300949#0" to="507449297"/>
    <trip id="veh321" type="veh_passenger" depart="2152.72" departLane="best" from="537452098" to="-59150732#0"/>
    <trip id="veh322" type="veh_passenger" depart="2159.43" departLane="best" from="537300951#1" to="-537470132#2"/>