<?xml version="1.0" encoding="UTF-8"?>

<!-- generated on 2021-06-05 08:33:41 by Eclipse SUMO netedit Version 1.9.1
<configuration xmlns:xsi="http://www.w3.org/2001/XMLSchema-instance" xsi:noNamespaceSchemaLocation="http://sumo.dlr.de/xsd/netconvertConfiguration.xsd">

    <input>
        <sumo-net-file value="/home/jk/Bs/sumo-rl/2021-06-05-08-31-18/osm.net.xml"/>
    </input>

    <output>
        <output-file value="/home/jk/Bs/sumo-rl/2021-06-05-08-31-18/osm.net.xml"/>
        <output.street-names value="true"/>
    </output>

    <processing>
        <geometry.min-radius.fix.railways value="false"/>
        <geometry.max-grade.fix value="false"/>
        <offset.disable-normalization value="true"/>
        <lefthand value="false"/>
    </processing>

    <junctions>
        <no-turnarounds value="true"/>
        <junctions.corner-detail value="5"/>
        <junctions.limit-turn-speed value="5.5"/>
        <rectangular-lane-cut value="false"/>
    </junctions>

    <pedestrian>
        <walkingareas value="false"/>
    </pedestrian>

    <report>
        <aggregate-warnings value="5"/>
    </report>

</configuration>
-->

<net version="1.9" junctionCornerDetail="5" limitTurnSpeed="5.50" xmlns:xsi="http://www.w3.org/2001/XMLSchema-instance" xsi:noNamespaceSchemaLocation="http://sumo.dlr.de/xsd/net_file.xsd">

    <location netOffset="-322480.95,-4126012.95" convBoundary="0.00,0.00,967.75,708.19" origBoundary="126.986469,37.251425,127.041693,37.288877" projParameter="+proj=utm +zone=52 +ellps=WGS84 +datum=WGS84 +units=m +no_defs"/>

    <type id="highway.bridleway" priority="1" numLanes="1" speed="2.78" allow="pedestrian" oneway="1" width="2.00"/>
    <type id="highway.bus_guideway" priority="1" numLanes="1" speed="27.78" allow="bus" oneway="1"/>
    <type id="highway.cycleway" priority="1" numLanes="1" speed="8.33" allow="bicycle" oneway="1" width="1.00"/>
    <type id="highway.footway" priority="1" numLanes="1" speed="2.78" allow="pedestrian" oneway="1" width="2.00"/>
    <type id="highway.ford" priority="1" numLanes="1" speed="2.78" allow="army" oneway="1"/>
    <type id="highway.living_street" priority="2" numLanes="1" speed="2.78" disallow="tram rail_urban rail rail_electric rail_fast ship" oneway="1"/>
    <type id="highway.motorway" priority="14" numLanes="2" speed="39.44" allow="private emergency authority army vip passenger hov taxi bus coach delivery truck trailer motorcycle evehicle custom1 custom2" oneway="1"/>
    <type id="highway.motorway_link" priority="9" numLanes="1" speed="22.22" allow="private emergency authority army vip passenger hov taxi bus coach delivery truck trailer motorcycle evehicle custom1 custom2" oneway="1"/>
    <type id="highway.path" priority="1" numLanes="1" speed="2.78" allow="pedestrian bicycle" oneway="1" width="2.00"/>
    <type id="highway.pedestrian" priority="1" numLanes="1" speed="2.78" allow="pedestrian" oneway="1" width="2.00"/>
    <type id="highway.primary" priority="12" numLanes="2" speed="27.78" disallow="tram rail_urban rail rail_electric rail_fast ship" oneway="1"/>
    <type id="highway.primary_link" priority="7" numLanes="1" speed="22.22" disallow="tram rail_urban rail rail_electric rail_fast ship" oneway="1"/>
    <type id="highway.raceway" priority="15" numLanes="2" speed="83.33" allow="vip" oneway="1"/>
    <type id="highway.residential" priority="3" numLanes="1" speed="13.89" disallow="tram rail_urban rail rail_electric rail_fast ship" oneway="1"/>
    <type id="highway.secondary" priority="11" numLanes="1" speed="27.78" disallow="tram rail_urban rail rail_electric rail_fast ship" oneway="1"/>
    <type id="highway.secondary_link" priority="6" numLanes="1" speed="22.22" disallow="tram rail_urban rail rail_electric rail_fast ship" oneway="1"/>
    <type id="highway.service" priority="1" numLanes="1" speed="5.56" allow="pedestrian delivery bicycle" oneway="1"/>
    <type id="highway.stairs" priority="1" numLanes="1" speed="1.39" allow="pedestrian" oneway="1" width="2.00"/>
    <type id="highway.step" priority="1" numLanes="1" speed="1.39" allow="pedestrian" oneway="1" width="2.00"/>
    <type id="highway.steps" priority="1" numLanes="1" speed="1.39" allow="pedestrian" oneway="1" width="2.00"/>
    <type id="highway.tertiary" priority="10" numLanes="1" speed="22.22" disallow="tram rail_urban rail rail_electric rail_fast ship" oneway="1"/>
    <type id="highway.tertiary_link" priority="5" numLanes="1" speed="22.22" disallow="tram rail_urban rail rail_electric rail_fast ship" oneway="1"/>
    <type id="highway.track" priority="1" numLanes="1" speed="5.56" allow="pedestrian motorcycle moped bicycle" oneway="1"/>
    <type id="highway.trunk" priority="13" numLanes="2" speed="27.78" disallow="pedestrian bicycle tram rail_urban rail rail_electric rail_fast ship" oneway="1"/>
    <type id="highway.trunk_link" priority="8" numLanes="1" speed="22.22" disallow="pedestrian bicycle tram rail_urban rail rail_electric rail_fast ship" oneway="1"/>
    <type id="highway.unclassified" priority="4" numLanes="1" speed="13.89" disallow="tram rail_urban rail rail_electric rail_fast ship" oneway="1"/>
    <type id="highway.unsurfaced" priority="1" numLanes="1" speed="8.33" disallow="tram rail_urban rail rail_electric rail_fast ship" oneway="1"/>
    <type id="railway.highspeed" priority="21" numLanes="1" speed="69.44" allow="rail_fast" oneway="1"/>
    <type id="railway.light_rail" priority="19" numLanes="1" speed="27.78" allow="rail_urban" oneway="1"/>
    <type id="railway.preserved" priority="16" numLanes="1" speed="27.78" allow="rail" oneway="1"/>
    <type id="railway.rail" priority="20" numLanes="1" speed="44.44" allow="rail" oneway="1"/>
    <type id="railway.subway" priority="18" numLanes="1" speed="27.78" allow="rail_urban" oneway="1"/>
    <type id="railway.tram" priority="17" numLanes="1" speed="13.89" allow="tram" oneway="1"/>

    <edge id=":2061377093_0" function="internal">
        <lane id=":2061377093_0_0" index="0" disallow="tram rail_urban rail rail_electric rail_fast ship" speed="27.78" length="24.45" shape="287.48,262.62 290.47,268.51 293.33,273.27 296.54,277.79 300.61,283.01"/>
        <lane id=":2061377093_0_1" index="1" disallow="tram rail_urban rail rail_electric rail_fast ship" speed="27.78" length="24.45" shape="284.79,264.41 287.81,270.33 290.72,275.15 293.99,279.74 298.09,284.98"/>
    </edge>
    <edge id=":2061377093_2" function="internal">
        <lane id=":2061377093_2_0" index="0" disallow="tram rail_urban rail rail_electric rail_fast ship" speed="27.78" length="24.61" shape="284.79,264.41 288.51,269.85 292.79,273.71 296.97,277.61 300.40,283.18"/>
    </edge>
    <edge id=":2061377093_3" function="internal">
        <lane id=":2061377093_3_0" index="0" disallow="tram rail_urban rail rail_electric rail_fast ship" speed="25.86" length="24.93" shape="281.49,267.23 287.44,270.35 292.13,273.74 296.28,277.83 300.61,283.01"/>
        <lane id=":2061377093_3_1" index="1" disallow="tram rail_urban rail rail_electric rail_fast ship" speed="25.70" length="24.93" shape="279.03,269.62 284.97,272.67 289.64,275.93 293.77,279.87 298.09,284.98"/>
    </edge>
    <edge id=":2061377093_5" function="internal">
        <lane id=":2061377093_5_0" index="0" disallow="tram rail_urban rail rail_electric rail_fast ship" speed="16.93" length="25.15" shape="279.03,269.62 285.26,272.51 290.39,275.51 294.53,279.47 297.78,285.23"/>
    </edge>
    <edge id=":436673036_0" function="internal">
        <lane id=":436673036_0_0" index="0" disallow="tram rail_urban rail rail_electric rail_fast ship" speed="3.71" length="4.62" shape="81.53,640.89 80.22,641.44 79.34,641.32 78.90,640.56 78.91,639.13"/>
    </edge>
    <edge id=":452380974_0" function="internal">
        <lane id=":452380974_0_0" index="0" disallow="tram rail_urban rail rail_electric rail_fast ship" speed="3.65" length="4.67" shape="968.41,611.95 969.17,613.17 969.21,614.07 968.51,614.63 967.09,614.87"/>
    </edge>
    <edge id=":4730091832_0" function="internal">
        <lane id=":4730091832_0_0" index="0" disallow="tram rail_urban rail rail_electric rail_fast ship" speed="27.78" length="3.68" shape="297.80,352.93 297.13,353.92 296.63,354.57 296.07,355.18 295.22,356.01"/>
        <lane id=":4730091832_0_1" index="1" disallow="tram rail_urban rail rail_electric rail_fast ship" speed="27.78" length="3.68" shape="295.14,351.15 294.58,351.97 294.17,352.51 293.71,353.01 293.00,353.70"/>
    </edge>
    <edge id=":4730091832_2" function="internal">
        <lane id=":4730091832_2_0" index="0" disallow="tram rail_urban rail rail_electric rail_fast ship" speed="27.78" length="5.06" shape="302.81,356.29 302.03,357.69 301.46,358.63 300.77,359.49 299.65,360.63"/>
        <lane id=":4730091832_2_1" index="1" disallow="tram rail_urban rail rail_electric rail_fast ship" speed="27.78" length="5.06" shape="300.15,354.51 299.47,355.73 298.99,356.56 298.40,357.32 297.43,358.32"/>
    </edge>
    <edge id=":4730398563_0" function="internal">
        <lane id=":4730398563_0_0" index="0" disallow="tram rail_urban rail rail_electric rail_fast ship" speed="3.65" length="4.67" shape="308.22,707.25 308.28,708.69 307.87,709.48 306.99,709.63 305.64,709.13"/>
    </edge>
    <edge id=":4730398564_0" function="internal">
        <lane id=":4730398564_0_0" index="0" disallow="tram rail_urban rail rail_electric rail_fast ship" speed="13.89" length="14.42" shape="257.29,642.99 248.80,631.34"/>
    </edge>
    <edge id=":4730398564_1" function="internal">
        <lane id=":4730398564_1_0" index="0" disallow="tram rail_urban rail rail_electric rail_fast ship" speed="7.98" length="5.95" shape="257.29,642.99 255.45,639.55 255.27,637.51"/>
    </edge>
    <edge id=":4730398564_2" function="internal">
        <lane id=":4730398564_2_0" index="0" disallow="tram rail_urban rail rail_electric rail_fast ship" speed="3.65" length="2.34" shape="257.29,642.99 257.22,641.55 257.63,640.76"/>
    </edge>
    <edge id=":4730398564_9" function="internal">
        <lane id=":4730398564_9_0" index="0" disallow="tram rail_urban rail rail_electric rail_fast ship" speed="7.98" length="8.28" shape="255.27,637.51 255.17,636.35 256.44,633.40 259.26,630.70"/>
    </edge>
    <edge id=":4730398564_10" function="internal">
        <lane id=":4730398564_10_0" index="0" disallow="tram rail_urban rail rail_electric rail_fast ship" speed="3.65" length="2.34" shape="257.63,640.76 258.52,640.61 259.87,641.11"/>
    </edge>
    <edge id=":4730398564_3" function="internal">
        <lane id=":4730398564_3_0" index="0" disallow="tram rail_urban rail rail_electric rail_fast ship" speed="6.48" length="9.03" shape="261.12,633.30 259.33,635.02 258.53,636.89 258.71,638.92 259.87,641.11"/>
    </edge>
    <edge id=":4730398564_4" function="internal">
        <lane id=":4730398564_4_0" index="0" disallow="tram rail_urban rail rail_electric rail_fast ship" speed="8.03" length="14.21" shape="261.12,633.30 257.66,635.11 254.46,635.38 251.50,634.12 248.80,631.34"/>
    </edge>
    <edge id=":4730398564_5" function="internal">
        <lane id=":4730398564_5_0" index="0" disallow="tram rail_urban rail rail_electric rail_fast ship" speed="3.65" length="2.56" shape="261.12,633.30 259.68,633.35 258.89,632.93 258.86,632.72"/>
    </edge>
    <edge id=":4730398564_11" function="internal">
        <lane id=":4730398564_11_0" index="0" disallow="tram rail_urban rail rail_electric rail_fast ship" speed="3.65" length="2.12" shape="258.86,632.72 258.75,632.05 259.26,630.70"/>
    </edge>
    <edge id=":4730398564_6" function="internal">
        <lane id=":4730398564_6_0" index="0" disallow="tram rail_urban rail rail_electric rail_fast ship" speed="6.54" length="9.08" shape="251.39,629.46 253.11,631.23 255.00,632.03 257.05,631.85 259.26,630.70"/>
    </edge>
    <edge id=":4730398564_7" function="internal">
        <lane id=":4730398564_7_0" index="0" disallow="tram rail_urban rail rail_electric rail_fast ship" speed="13.89" length="14.41" shape="251.39,629.46 259.87,641.11"/>
    </edge>
    <edge id=":4730398564_8" function="internal">
        <lane id=":4730398564_8_0" index="0" disallow="tram rail_urban rail rail_electric rail_fast ship" speed="3.65" length="2.34" shape="251.39,629.46 251.45,630.90 251.03,631.70"/>
    </edge>
    <edge id=":4730398564_12" function="internal">
        <lane id=":4730398564_12_0" index="0" disallow="tram rail_urban rail rail_electric rail_fast ship" speed="3.65" length="2.34" shape="251.03,631.70 250.15,631.84 248.80,631.34"/>
    </edge>
    <edge id=":4730398565_0" function="internal">
        <lane id=":4730398565_0_0" index="0" disallow="tram rail_urban rail rail_electric rail_fast ship" speed="6.53" length="9.03" shape="346.18,582.65 344.54,580.81 342.71,579.92 340.66,579.99 338.41,581.01"/>
    </edge>
    <edge id=":4730398565_1" function="internal">
        <lane id=":4730398565_1_0" index="0" disallow="tram rail_urban rail rail_electric rail_fast ship" speed="13.89" length="14.35" shape="346.18,582.65 338.40,570.60"/>
    </edge>
    <edge id=":4730398565_2" function="internal">
        <lane id=":4730398565_2_0" index="0" disallow="tram rail_urban rail rail_electric rail_fast ship" speed="3.65" length="2.34" shape="346.18,582.65 346.19,581.21 346.63,580.44"/>
    </edge>
    <edge id=":4730398565_9" function="internal">
        <lane id=":4730398565_9_0" index="0" disallow="tram rail_urban rail rail_electric rail_fast ship" speed="3.65" length="2.34" shape="346.63,580.44 347.52,580.33 348.85,580.90"/>
    </edge>
    <edge id=":4730398565_3" function="internal">
        <lane id=":4730398565_3_0" index="0" disallow="tram rail_urban rail rail_electric rail_fast ship" speed="13.89" length="14.30" shape="341.10,568.89 348.85,580.90"/>
    </edge>
    <edge id=":4730398565_4" function="internal">
        <lane id=":4730398565_4_0" index="0" disallow="tram rail_urban rail rail_electric rail_fast ship" speed="8.00" length="5.84" shape="341.10,568.89 342.69,572.42 342.74,574.38"/>
    </edge>
    <edge id=":4730398565_5" function="internal">
        <lane id=":4730398565_5_0" index="0" disallow="tram rail_urban rail rail_electric rail_fast ship" speed="3.65" length="2.34" shape="341.10,568.89 341.07,570.33 340.60,571.09"/>
    </edge>
    <edge id=":4730398565_10" function="internal">
        <lane id=":4730398565_10_0" index="0" disallow="tram rail_urban rail rail_electric rail_fast ship" speed="8.00" length="8.31" shape="342.74,574.38 342.77,575.62 341.35,578.48 338.41,581.01"/>
    </edge>
    <edge id=":4730398565_11" function="internal">
        <lane id=":4730398565_11_0" index="0" disallow="tram rail_urban rail rail_electric rail_fast ship" speed="3.65" length="2.34" shape="340.60,571.09 339.71,571.18 338.40,570.60"/>
    </edge>
    <edge id=":4730398565_6" function="internal">
        <lane id=":4730398565_6_0" index="0" disallow="tram rail_urban rail rail_electric rail_fast ship" speed="6.51" length="9.01" shape="336.68,578.32 338.55,576.71 339.46,574.88 339.41,572.85 338.40,570.60"/>
    </edge>
    <edge id=":4730398565_7" function="internal">
        <lane id=":4730398565_7_0" index="0" disallow="tram rail_urban rail rail_electric rail_fast ship" speed="8.02" length="14.14" shape="336.68,578.32 340.21,576.71 343.41,576.60 346.29,578.00 348.85,580.90"/>
    </edge>
    <edge id=":4730398565_8" function="internal">
        <lane id=":4730398565_8_0" index="0" disallow="tram rail_urban rail rail_electric rail_fast ship" speed="3.65" length="2.56" shape="336.68,578.32 338.13,578.34 338.89,578.80 338.92,579.02"/>
    </edge>
    <edge id=":4730398565_12" function="internal">
        <lane id=":4730398565_12_0" index="0" disallow="tram rail_urban rail rail_electric rail_fast ship" speed="3.65" length="2.12" shape="338.92,579.02 338.99,579.69 338.41,581.01"/>
    </edge>
    <edge id=":4871178506_0" function="internal">
        <lane id=":4871178506_0_0" index="0" disallow="tram rail_urban rail rail_electric rail_fast ship" speed="27.78" length="2.76" shape="288.79,231.72 287.76,234.21"/>
        <lane id=":4871178506_0_1" index="1" disallow="tram rail_urban rail rail_electric rail_fast ship" speed="27.78" length="2.76" shape="285.86,230.43 284.78,233.05"/>
    </edge>
    <edge id=":4871178506_2" function="internal">
        <lane id=":4871178506_2_0" index="0" disallow="tram rail_urban rail rail_electric rail_fast ship" speed="27.78" length="3.05" shape="282.93,229.15 281.80,231.90"/>
        <lane id=":4871178506_2_1" index="1" disallow="tram rail_urban rail rail_electric rail_fast ship" speed="27.78" length="3.05" shape="280.00,227.86 278.82,230.75"/>
    </edge>
    <edge id=":4969500883_0" function="internal">
        <lane id=":4969500883_0_0" index="0" disallow="tram rail_urban rail rail_electric rail_fast ship" speed="25.00" length="3.13" shape="145.70,549.99 144.60,552.92"/>
    </edge>
    <edge id=":4969500883_1" function="internal">
        <lane id=":4969500883_1_0" index="0" disallow="tram rail_urban rail rail_electric rail_fast ship" speed="27.78" length="3.14" shape="142.76,548.74 141.53,551.63"/>
        <lane id=":4969500883_1_1" index="1" disallow="tram rail_urban rail rail_electric rail_fast ship" speed="27.78" length="3.14" shape="139.81,547.49 138.58,550.38"/>
    </edge>
    <edge id=":5203384422_0" function="internal">
        <lane id=":5203384422_0_0" index="0" disallow="tram rail_urban rail rail_electric rail_fast ship" speed="6.28" length="9.06" shape="362.57,71.24 360.26,70.25 358.27,70.30 356.57,71.39 355.18,73.51"/>
    </edge>
    <edge id=":5203384422_1" function="internal">
        <lane id=":5203384422_1_0" index="0" disallow="tram rail_urban rail rail_electric rail_fast ship" speed="3.65" length="2.53" shape="362.57,71.24 361.96,69.93 362.04,69.04 362.20,68.94"/>
    </edge>
    <edge id=":5203384422_5" function="internal">
        <lane id=":5203384422_5_0" index="0" disallow="tram rail_urban rail rail_electric rail_fast ship" speed="3.65" length="2.15" shape="362.20,68.94 362.80,68.56 364.24,68.51"/>
    </edge>
    <edge id=":5203384422_2" function="internal">
        <lane id=":5203384422_2_0" index="0" disallow="tram rail_urban rail rail_electric rail_fast ship" speed="7.12" length="9.81" shape="360.98,60.26 360.39,62.63 360.73,64.80 362.02,66.76 364.24,68.51"/>
    </edge>
    <edge id=":5203384422_3" function="internal">
        <lane id=":5203384422_3_0" index="0" disallow="tram rail_urban rail rail_electric rail_fast ship" speed="27.78" length="14.47" shape="360.98,60.26 355.18,73.51"/>
        <lane id=":5203384422_3_1" index="1" disallow="tram rail_urban rail rail_electric rail_fast ship" speed="27.78" length="14.47" shape="358.04,59.00 352.24,72.25"/>
    </edge>
    <edge id=":5203384426_0" function="internal">
        <lane id=":5203384426_0_0" index="0" disallow="tram rail_urban rail rail_electric rail_fast ship" speed="6.47" length="9.03" shape="317.91,296.78 316.03,298.40 315.14,300.23 315.23,302.27 316.30,304.50"/>
    </edge>
    <edge id=":5203384426_1" function="internal">
        <lane id=":5203384426_1_0" index="0" disallow="tram rail_urban rail rail_electric rail_fast ship" speed="3.65" length="2.56" shape="317.91,296.78 316.47,296.75 315.70,296.30 315.67,296.07"/>
    </edge>
    <edge id=":5203384426_5" function="internal">
        <lane id=":5203384426_5_0" index="0" disallow="tram rail_urban rail rail_electric rail_fast ship" speed="3.65" length="2.11" shape="315.67,296.07 315.60,295.41 316.18,294.09"/>
    </edge>
    <edge id=":5203384426_2" function="internal">
        <lane id=":5203384426_2_0" index="0" disallow="tram rail_urban rail rail_electric rail_fast ship" speed="6.75" length="9.04" shape="308.22,292.58 310.03,294.32 311.95,295.15 314.00,295.07 316.18,294.09"/>
    </edge>
    <edge id=":5203384426_3" function="internal">
        <lane id=":5203384426_3_0" index="0" disallow="tram rail_urban rail rail_electric rail_fast ship" speed="27.78" length="14.40" shape="308.22,292.58 316.30,304.50"/>
        <lane id=":5203384426_3_1" index="1" disallow="tram rail_urban rail rail_electric rail_fast ship" speed="27.78" length="14.40" shape="305.55,294.37 313.64,306.28"/>
    </edge>
    <edge id=":5203384427_0" function="internal">
        <lane id=":5203384427_0_0" index="0" disallow="tram rail_urban rail rail_electric rail_fast ship" speed="9.02" length="10.36" shape="345.25,285.60 342.44,284.60 339.85,284.26 337.48,284.58 335.32,285.57"/>
    </edge>
    <edge id=":5203384427_1" function="internal">
        <lane id=":5203384427_1_0" index="0" disallow="tram rail_urban rail rail_electric rail_fast ship" speed="7.95" length="14.30" shape="345.25,285.60 341.94,283.47 340.14,280.81 339.85,277.60 341.07,273.86"/>
    </edge>
    <edge id=":5203384427_2" function="internal">
        <lane id=":5203384427_2_0" index="0" disallow="tram rail_urban rail rail_electric rail_fast ship" speed="3.65" length="2.56" shape="345.25,285.60 344.49,284.38 344.46,283.48 344.63,283.34"/>
    </edge>
    <edge id=":5203384427_9" function="internal">
        <lane id=":5203384427_9_0" index="0" disallow="tram rail_urban rail rail_electric rail_fast ship" speed="3.65" length="2.11" shape="344.63,283.34 345.16,282.92 346.58,282.69"/>
    </edge>
    <edge id=":5203384427_3" function="internal">
        <lane id=":5203384427_3_0" index="0" disallow="tram rail_urban rail rail_electric rail_fast ship" speed="6.45" length="9.03" shape="343.94,275.28 343.17,277.64 343.36,279.66 344.49,281.35 346.58,282.69"/>
    </edge>
    <edge id=":5203384427_4" function="internal">
        <lane id=":5203384427_4_0" index="0" disallow="tram rail_urban rail rail_electric rail_fast ship" speed="13.89" length="13.61" shape="343.94,275.28 342.26,278.40 340.38,281.09 338.13,283.45 335.32,285.57"/>
    </edge>
    <edge id=":5203384427_5" function="internal">
        <lane id=":5203384427_5_0" index="0" disallow="tram rail_urban rail rail_electric rail_fast ship" speed="3.65" length="2.34" shape="343.94,275.28 342.70,276.00 341.80,276.01"/>
    </edge>
    <edge id=":5203384427_10" function="internal">
        <lane id=":5203384427_10_0" index="0" disallow="tram rail_urban rail rail_electric rail_fast ship" speed="3.65" length="2.34" shape="341.80,276.01 341.26,275.29 341.07,273.86"/>
    </edge>
    <edge id=":5203384427_6" function="internal">
        <lane id=":5203384427_6_0" index="0" disallow="tram rail_urban rail rail_electric rail_fast ship" speed="13.89" length="11.92" shape="333.59,282.88 336.22,280.96 338.08,279.04 339.56,276.78 341.07,273.86"/>
    </edge>
    <edge id=":5203384427_7" function="internal">
        <lane id=":5203384427_7_0" index="0" disallow="tram rail_urban rail rail_electric rail_fast ship" speed="10.26" length="4.71" shape="333.59,282.88 336.49,281.52 337.98,281.29"/>
    </edge>
    <edge id=":5203384427_8" function="internal">
        <lane id=":5203384427_8_0" index="0" disallow="tram rail_urban rail rail_electric rail_fast ship" speed="3.65" length="2.20" shape="333.59,282.88 335.03,282.90 335.68,283.29"/>
    </edge>
    <edge id=":5203384427_11" function="internal">
        <lane id=":5203384427_11_0" index="0" disallow="tram rail_urban rail rail_electric rail_fast ship" speed="10.26" length="8.86" shape="337.98,281.29 339.62,281.04 342.99,281.43 346.58,282.69"/>
    </edge>
    <edge id=":5203384427_12" function="internal">
        <lane id=":5203384427_12_0" index="0" disallow="tram rail_urban rail rail_electric rail_fast ship" speed="3.65" length="2.47" shape="335.68,283.29 335.80,283.36 335.90,284.25 335.32,285.57"/>
    </edge>
    <edge id=":5203384430_0" function="internal">
        <lane id=":5203384430_0_0" index="0" disallow="tram rail_urban rail rail_electric rail_fast ship" speed="5.55" length="9.42" shape="446.65,262.50 445.19,259.98 443.63,259.08 441.99,259.80 440.25,262.14"/>
    </edge>
    <edge id=":5203384430_1" function="internal">
        <lane id=":5203384430_1_0" index="0" disallow="tram rail_urban rail rail_electric rail_fast ship" speed="13.89" length="16.04" shape="446.65,262.50 440.32,247.76"/>
    </edge>
    <edge id=":5203384430_2" function="internal">
        <lane id=":5203384430_2_0" index="0" disallow="tram rail_urban rail rail_electric rail_fast ship" speed="3.65" length="2.34" shape="446.65,262.50 446.91,261.08 447.48,260.39"/>
    </edge>
    <edge id=":5203384430_9" function="internal">
        <lane id=":5203384430_9_0" index="0" disallow="tram rail_urban rail rail_electric rail_fast ship" speed="3.65" length="2.34" shape="447.48,260.39 448.38,260.44 449.59,261.23"/>
    </edge>
    <edge id=":5203384430_3" function="internal">
        <lane id=":5203384430_3_0" index="0" disallow="tram rail_urban rail rail_electric rail_fast ship" speed="13.89" length="16.03" shape="443.26,246.50 449.59,261.23"/>
    </edge>
    <edge id=":5203384430_4" function="internal">
        <lane id=":5203384430_4_0" index="0" disallow="tram rail_urban rail rail_electric rail_fast ship" speed="11.91" length="5.55" shape="443.26,246.50 444.02,249.67 443.86,251.95"/>
    </edge>
    <edge id=":5203384430_5" function="internal">
        <lane id=":5203384430_5_0" index="0" disallow="tram rail_urban rail rail_electric rail_fast ship" speed="3.65" length="2.34" shape="443.26,246.50 443.00,247.91 442.43,248.60"/>
    </edge>
    <edge id=":5203384430_10" function="internal">
        <lane id=":5203384430_10_0" index="0" disallow="tram rail_urban rail rail_electric rail_fast ship" speed="11.91" length="10.90" shape="443.86,251.95 443.77,253.34 442.51,257.50 440.25,262.14"/>
    </edge>
    <edge id=":5203384430_11" function="internal">
        <lane id=":5203384430_11_0" index="0" disallow="tram rail_urban rail rail_electric rail_fast ship" speed="3.65" length="2.34" shape="442.43,248.60 441.53,248.55 440.32,247.76"/>
    </edge>
    <edge id=":5203384430_6" function="internal">
        <lane id=":5203384430_6_0" index="0" disallow="tram rail_urban rail rail_electric rail_fast ship" speed="10.83" length="13.52" shape="437.47,260.57 439.43,256.62 440.56,253.16 440.85,250.21 440.32,247.76"/>
    </edge>
    <edge id=":5203384430_7" function="internal">
        <lane id=":5203384430_7_0" index="0" disallow="tram rail_urban rail rail_electric rail_fast ship" speed="7.38" length="17.85" shape="437.47,260.57 440.76,256.13 443.87,254.76 446.82,256.46 449.59,261.23"/>
    </edge>
    <edge id=":5203384430_8" function="internal">
        <lane id=":5203384430_8_0" index="0" disallow="tram rail_urban rail rail_electric rail_fast ship" speed="3.65" length="2.53" shape="437.47,260.57 438.75,259.92 439.65,259.96 439.76,260.13"/>
    </edge>
    <edge id=":5203384430_12" function="internal">
        <lane id=":5203384430_12_0" index="0" disallow="tram rail_urban rail rail_electric rail_fast ship" speed="3.65" length="2.14" shape="439.76,260.13 440.15,260.71 440.25,262.14"/>
    </edge>
    <edge id=":5203384431_0" function="internal">
        <lane id=":5203384431_0_0" index="0" disallow="tram rail_urban rail rail_electric rail_fast ship" speed="6.52" length="9.04" shape="367.88,295.98 365.51,295.28 363.48,295.51 361.79,296.66 360.44,298.74"/>
    </edge>
    <edge id=":5203384431_1" function="internal">
        <lane id=":5203384431_1_0" index="0" disallow="tram rail_urban rail rail_electric rail_fast ship" speed="13.89" length="14.40" shape="367.88,295.98 354.79,289.98"/>
    </edge>
    <edge id=":5203384431_2" function="internal">
        <lane id=":5203384431_2_0" index="0" disallow="tram rail_urban rail rail_electric rail_fast ship" speed="3.65" length="2.34" shape="367.88,295.98 367.12,294.75 367.09,293.86"/>
    </edge>
    <edge id=":5203384431_9" function="internal">
        <lane id=":5203384431_9_0" index="0" disallow="tram rail_urban rail rail_electric rail_fast ship" speed="3.65" length="2.34" shape="367.09,293.86 367.79,293.30 369.21,293.07"/>
    </edge>
    <edge id=":5203384431_3" function="internal">
        <lane id=":5203384431_3_0" index="0" disallow="tram rail_urban rail rail_electric rail_fast ship" speed="13.89" length="14.40" shape="356.13,287.07 369.21,293.07"/>
    </edge>
    <edge id=":5203384431_4" function="internal">
        <lane id=":5203384431_4_0" index="0" disallow="tram rail_urban rail rail_electric rail_fast ship" speed="8.00" length="5.93" shape="356.13,287.07 359.40,289.18 360.55,290.86"/>
    </edge>
    <edge id=":5203384431_5" function="internal">
        <lane id=":5203384431_5_0" index="0" disallow="tram rail_urban rail rail_electric rail_fast ship" speed="3.65" length="2.34" shape="356.13,287.07 356.88,288.30 356.91,289.19"/>
    </edge>
    <edge id=":5203384431_10" function="internal">
        <lane id=":5203384431_10_0" index="0" disallow="tram rail_urban rail rail_electric rail_fast ship" speed="8.00" length="8.27" shape="360.55,290.86 361.21,291.83 361.56,295.02 360.44,298.74"/>
    </edge>
    <edge id=":5203384431_11" function="internal">
        <lane id=":5203384431_11_0" index="0" disallow="tram rail_urban rail rail_electric rail_fast ship" speed="3.65" length="2.34" shape="356.91,289.19 356.22,289.75 354.79,289.98"/>
    </edge>
    <edge id=":5203384431_6" function="internal">
        <lane id=":5203384431_6_0" index="0" disallow="tram rail_urban rail rail_electric rail_fast ship" speed="6.50" length="9.03" shape="357.54,297.40 358.25,295.03 358.02,293.00 356.87,291.32 354.79,289.98"/>
    </edge>
    <edge id=":5203384431_7" function="internal">
        <lane id=":5203384431_7_0" index="0" disallow="tram rail_urban rail rail_electric rail_fast ship" speed="8.01" length="14.20" shape="357.54,297.40 359.65,294.14 362.30,292.32 365.49,291.97 369.21,293.07"/>
    </edge>
    <edge id=":5203384431_8" function="internal">
        <lane id=":5203384431_8_0" index="0" disallow="tram rail_urban rail rail_electric rail_fast ship" speed="3.65" length="2.56" shape="357.54,297.40 358.77,296.65 359.66,296.62 359.80,296.79"/>
    </edge>