<?xml version="1.0" encoding="UTF-8"?>

<!-- generated on 2021-06-05 08:31:22 by Eclipse SUMO polyconvert Version 1.9.1
<configuration xmlns:xsi="http://www.w3.org/2001/XMLSchema-instance" xsi:noNamespaceSchemaLocation="http://sumo.dlr.de/xsd/polyconvertConfiguration.xsd">

    <input>
        <net-file value="osm.net.xml"/>
        <osm-files value="osm_bbox.osm.xml"/>
        <osm.keep-full-type value="true"/>
        <type-file value="/usr/share/sumo/data/typemap/osmPolyconvert.typ.xml"/>
    </input>

    <output>
        <output-file value="osm.poly.xml"/>
    </output>

    <processing>
        <poi-layer-offset value="5"/>
    </processing>

    <report>
        <verbose value="true"/>
    </report>

</configuration>
-->

<additional xmlns:xsi="http://www.w3.org/2001/XMLSchema-instance" xsi:noNamespaceSchemaLocation="http://sumo.dlr.de/xsd/additional_file.xsd">
    <location netOffset="-322480.95,-4126012.95" convBoundary="-1686.87,-1451.56,3842.83,2806.73" origBoundary="126.978409,37.251425,127.041693,37.288877" projParameter="+proj=utm +zone=52 +ellps=WGS84 +datum=WGS84 +units=m +no_defs"/>

    <poly id="316509661" type="building.train_station" color="255,230,230" fill="1" layer="-1.00" shape="70.679318,305.583605 106.650995,229.493832 110.054916,221.806809 113.340559,214.399805 186.232259,61.224035 285.124504,107.576725 258.043972,166.205143 274.975120,172.241260 226.463151,277.590061 211.569715,303.724920 201.979836,331.867893 197.080221,343.505016 183.677876,366.722254 142.778955,428.807046 133.167607,424.459088 130.854658,423.742069 137.720046,410.675743 103.840330,395.651740 134.141945,327.075025 70.679318,305.583605"/>
    <poly id="469348634" type="landuse.residential" color="235,235,227" fill="1" layer="-3.00" shape="402.314886,74.352505 392.031147,88.589717 408.276045,142.373113 436.872860,145.843192 451.539235,171.941828 451.211693,234.589334 454.211693,258.603162 501.403556,253.666252 506.369293,268.258611 524.058525,265.254437 538.803621,272.402855 596.784267,268.337773 608.698548,237.604272 616.313150,223.001811 655.105480,215.212501 708.870531,221.161023 718.517686,196.070186 720.474442,175.681606 723.659944,146.242369 752.655809,121.931505 795.980467,100.160564 813.940260,67.868068 815.520231,35.898491 796.939754,10.103757 788.591483,-2.930001 567.517686,32.934828 492.291347,45.145500 411.705952,59.434822 402.314886,74.352505"/>
    <poly id="537452097" type="building.commercial" color="255,230,230" fill="1" layer="-1.00" shape="347.548498,278.094985 399.745239,302.623734 408.045522,307.066287 436.749594,253.876680 404.656581,179.358994 396.510341,179.275716 347.548498,278.094985"/>
    <poly id="556954296" type="amenity.bus_station" color="237,199,199" fill="1" layer="-1.00" shape="42.550676,245.824766 50.291097,248.114207 58.376807,247.854308 65.956254,245.051987 72.255166,240.012242 76.627879,233.248258 83.202129,220.254659 86.928516,212.294389 90.162865,205.399088 95.914861,191.279535 97.263804,184.168809 96.543680,176.968647 93.802395,170.266367 89.264514,164.612250 83.312589,160.475532 76.005227,158.110291 68.320318,158.028670 60.967550,160.226754 54.608510,164.524035 49.829145,170.519591 40.384511,191.255581 30.312812,213.381332 28.419751,220.770002 28.838007,228.376173 31.526412,235.512477 36.240069,241.506963 42.550676,245.824766"/>
    <poly id="556954296#1" type="building.yes" color="255,230,230" fill="1" layer="-1.00" shape="42.550676,245.824766 50.291097,248.114207 58.376807,247.854308 65.956254,245.051987 72.255166,240.012242 76.627879,233.248258 83.202129,220.254659 86.928516,212.294389 90.162865,205.399088 95.914861,191.279535 97.263804,184.168809 96.543680,176.968647 93.802395,170.266367 89.264514,164.612250 83.312589,160.475532 76.005227,158.110291 68.320318,158.028670 60.967550,160.226754 54.608510,164.524035 49.829145,170.519591 40.384511,191.255581 30.312812,213.381332 28.419751,220.770002 28.838007,228.376173 31.526412,235.512477 36.240069,241.506963 42.550676,245.824766"/>
    <poly id="617564356" type="building.yes" color="255,230,230" fill="1" layer="-1.00" shape="66.372560,573.732426 80.317446,579.542692 98.234748,560.936381 138.855548,457.229891 121.582135,450.091252 133.167607,424.459088 130.854658,423.742069 118.750637,449.185395 66.372560,573.732426"/>
    <poly id="765277442" type="building.yes" color="255,230,230" fill="1" layer="-1.00" shape="441.764019,119.076323 496.518674,108.817993 498.656723,120.162060 443.901907,130.409283 441.764019,119.076323"/>
    <poly id="765277443" type="building.yes" color="255,230,230" fill="1" layer="-1.00" shape="410.207440,84.265169 422.027580,82.283886 428.570546,121.142082 416.741592,123.123545 410.207440,84.265169"/>
    <poly id="772657040" type="landuse.village_green" color="242,242,204" fill="1" layer="-3.00" shape="235.965784,368.702733 240.137554,370.057624 262.397635,364.636235 284.097211,352.422086 293.603194,341.708931 297.291987,329.864347 298.462354,306.739273 295.014388,290.516458 286.904496,279.553938 277.093604,275.842762 235.965784,368.702733"/>
    <poly id="775034448" type="building.yes" color="255,230,230" fill="1" layer="-1.00" shape="213.753755,433.045188 205.785718,451.030128 220.247881,457.384724 218.926912,460.365413 238.188830,468.827584 247.486998,447.872901 213.753755,433.045188"/>
    <poly id="775034449" type="building.yes" color="255,230,230" fill="1" layer="-1.00" shape="238.567313,472.882404 230.552630,491.179124 216.056234,484.880740 206.611476,506.449099 186.017525,497.504542 200.786196,463.812729 217.637373,471.126962 220.337158,464.964550 238.567313,472.882404"/>
    <poly id="775034450" type="building.yes" color="255,230,230" fill="1" layer="-1.00" shape="310.804144,217.773629 303.181238,235.318230 349.747508,255.358920 357.361854,237.825647 310.804144,217.773629"/>
    <poly id="776060777" type="building.yes" color="255,230,230" fill="1" layer="-1.00" shape="326.268914,350.931528 321.206789,353.624923 304.158298,391.138857 306.581645,399.179985 309.492518,400.483849 330.944114,353.019568 326.268914,350.931528"/>
    <poly id="776060778" type="building.yes" color="255,230,230" fill="1" layer="-1.00" shape="336.352124,499.388775 330.313406,513.381011 365.791901,528.538615 371.830663,514.546405 336.352124,499.388775"/>
    <poly id="776060779" type="building.yes" color="255,230,230" fill="1" layer="-1.00" shape="306.447521,409.206659 311.931857,412.221139 306.505818,422.881364 299.463613,420.454839 297.708458,415.485559 299.303468,412.876514 306.447521,409.206659"/>
    <poly id="776060780" type="building.yes" color="255,230,230" fill="1" layer="-1.00" shape="253.838012,419.698531 244.526144,439.587835 231.847846,433.683912 230.737864,436.993156 216.713716,430.795789 218.054489,427.492764 232.842822,417.800115 253.838012,419.698531"/>
    <poly id="776060781" type="building.yes" color="255,230,230" fill="1" layer="-1.00" shape="257.250701,419.559793 264.877578,422.784270 259.619801,435.106063 251.992697,431.870495 257.250701,419.559793"/>
    <poly id="776060782" type="building.yes" color="255,230,230" fill="1" layer="-1.00" shape="247.264485,442.382806 254.608048,445.635463 259.062817,435.617363 251.719483,432.375797 247.264485,442.382806"/>
    <poly id="778381364" type="building.retail" color="255,230,230" fill="1" layer="-1.00" shape="311.744855,198.472021 319.008783,201.726426 313.965818,212.889168 306.692795,209.623859 311.744855,198.472021"/>
    <poly id="778381365" type="building.yes" color="255,230,230" fill="1" layer="-1.00" shape="335.477897,286.264712 344.994349,291.158837 339.649592,301.473196 336.384638,299.788280 331.590485,293.750938 335.477897,286.264712"/>
    <poly id="778381366" type="building.yes" color="255,230,230" fill="1" layer="-1.00" shape="340.496262,301.655120 345.631941,291.522788 355.074391,296.274180 349.938704,306.406505 340.496262,301.655120"/>
    <poly id="778381367" type="building.yes" color="255,230,230" fill="1" layer="-1.00" shape="327.913427,306.993930 331.599499,305.095555 338.703296,318.832315 335.008127,320.719780 327.913427,306.993930"/>
    <poly id="778381368" type="building.yes" color="255,230,230" fill="1" layer="-1.00" shape="343.918902,320.043099 349.057580,309.633191 336.668301,303.556489 336.007627,305.879370 340.559218,315.973555 343.918902,320.043099"/>
    <poly id="837534253" type="building.yes" color="255,230,230" fill="1" layer="-1.00" shape="-118.985152,-38.805457 -55.505102,-9.933763 -20.733083,5.659143 -40.537589,51.257888 -17.095925,61.384950 -24.675571,77.596886 -23.515735,80.835916 -13.733747,90.708214 16.077063,117.562380 23.559118,122.310507 28.246157,124.109522 34.817060,124.791915 40.294313,124.942424 49.533197,122.571206 56.590532,120.246158 64.764413,114.922528 58.048250,124.566754 38.038167,136.557005 34.077926,138.916436 30.021547,141.344506 26.464545,143.473395 18.626128,147.457892 9.578408,146.284003 3.670221,145.054775 -4.697302,143.322575 -90.003047,103.479085 -125.966595,83.560271 -139.307511,73.219549 -154.331915,60.472371 -165.021892,46.279115 -155.934659,23.763250 -150.467922,10.848425 -143.581569,13.433309 -118.985152,-38.805457"/>
    <poly id="837534253#1" type="shop.mall" color="237,199,255" fill="1" layer="-1.00" shape="-118.985152,-38.805457 -55.505102,-9.933763 -20.733083,5.659143 -40.537589,51.257888 -17.095925,61.384950 -24.675571,77.596886 -23.515735,80.835916 -13.733747,90.708214 16.077063,117.562380 23.559118,122.310507 28.246157,124.109522 34.817060,124.791915 40.294313,124.942424 49.533197,122.571206 56.590532,120.246158 64.764413,114.922528 58.048250,124.566754 38.038167,136.557005 34.077926,138.916436 30.021547,141.344506 26.464545,143.473395 18.626128,147.457892 9.578408,146.284003 3.670221,145.054775 -4.697302,143.322575 -90.003047,103.479085 -125.966595,83.560271 -139.307511,73.219549 -154.331915,60.472371 -165.021892,46.279115 -155.934659,23.763250 -150.467922,10.848425 -143.581569,13.433309 -118.985152,-38.805457"/>
    <poly id="837534255" type="building.yes" color="255,230,230" fill="1" layer="-1.00" shape="-40.537589,51.257888 -20.733083,5.659143 89.544776,57.496545 64.764413,114.922528 56.590532,120.246158 49.533197,122.571206 40.294313,124.942424 34.817060,124.791915 28.246157,124.109522 23.559118,122.310507 16.077063,117.562380 -13.733747,90.708214 -23.515735,80.835916 -24.675571,77.596886 -17.095925,61.384950 -40.537589,51.257888"/>
    <poly id="837534255#1" type="shop.department_store" color="237,199,255" fill="1" layer="-1.00" shape="-40.537589,51.257888 -20.733083,5.659143 89.544776,57.496545 64.764413,114.922528 56.590532,120.246158 49.533197,122.571206 40.294313,124.942424 34.817060,124.791915 28.246157,124.109522 23.559118,122.310507 16.077063,117.562380 -13.733747,90.708214 -23.515735,80.835916 -24.675571,77.596886 -17.095925,61.384950 -40.537589,51.257888"/>
    <poly id="837534258" type="man_made.bridge" color="255,230,230" fill="1" layer="-1.00" shape="83.202129,220.254659 106.650995,229.493832 110.054916,221.806809 113.340559,214.399805 90.162865,205.399088 86.928516,212.294389 83.202129,220.254659"/>
    <poly id="838518595" type="landuse.railway" color="194,194,130" fill="1" layer="-3.00" shape="-41.381003,651.286638 36.381227,636.774820 74.266360,544.293059 122.520957,432.821040 131.298392,414.940999 198.246275,347.043655 281.176646,143.692680 285.775544,80.866039 330.697376,-10.153279 356.456396,-2.027850 446.789821,-177.004528 503.640753,-315.474138 447.967678,-321.270264 445.861274,-329.007302 464.323014,-377.862095 656.905494,-819.175469 714.478842,-942.295134 688.600951,-950.474791 636.044248,-833.521601 612.113458,-839.843866 578.364280,-778.656337 559.469575,-744.778536 586.368261,-729.405470 548.766935,-644.758752 473.296601,-473.549697 467.033557,-474.760681 391.272894,-322.504316 286.951574,-131.779539 202.346607,15.182178 141.158268,145.376192 84.699253,280.954433 40.645979,400.652070 10.568638,483.966069 -13.069568,596.505056 -41.381003,651.286638"/>
    <poi id="4162444505" type="shop.department_store" color="237,199,255" layer="4.00" x="217.34" y="240.77"/>
    <poi id="4650836356" type="amenity.restaurant" color="237,199,199" layer="4.00" x="342.63" y="421.42"/>
    <poi id="4693187189" type="amenity.fast_food" color="237,199,199" layer="4.00" x="443.08" y="385.83"/>
    <poi id="4693187289" type="amenity.cafe" color="237,199,199" layer="4.00" x="418.52" y="375.50"/>
    <poi id="4697070390" type="amenity.restaurant" color="237,199,199" layer="4.00" x="137.68" y="311.60"/>
    <poi id="4883470822" type="amenity.cafe" color="237,199,199" layer="4.00" x="302.50" y="421.02"/>
    <poi id="5167910023" type="leisure.sauna" color="207,245,201" layer="3.00" x="399.75" y="302.62"/>
    <poi id="5176917922" type="tourism.hotel" color="207,245,201" layer="3.00" x="113.20" y="508.05"/>
    <poi id="7525136085" type="amenity.pharmacy" color="237,199,199" layer="4.00" x="211.36" y="567.83"/>
    <poi id="7525144785" type="tourism.motel" color="207,245,201" layer="3.00" x="230.32" y="523.21"/>
    <poi id="7525162585" type="amenity.nightclub" color="237,199,199" layer="4.00" x="235.97" y="509.54"/>
    <poi id="7525182385" type="amenity.ice_cream" color="237,199,199" layer="4.00" x="262.83" y="424.08"/>
    <poi id="7525189585" type="tourism.apartment" color="207,245,201" layer="3.00" x="229.11" y="466.78"/>
    <poi id="7525198885" type="shop.mobile_phone" color="237,199,255" layer="4.00" x="228.61" y="459.76"/>
    <poi id="7525201185" type="shop.mobile_phone" color="237,199,255" layer="4.00" x="281.47" y="425.79"/>
    <poi id="7525210286" type="amenity.restaurant" color="237,199,199" layer="4.00" x="278.66" y="433.95"/>
    <poi id="7525220186" type="shop.convenience" color="237,199,255" layer="4.00" x="243.05" y="518.66"/>
    <poi id="7525234585" type="tourism.apartment" color="207,245,201" layer="3.00" x="238.86" y="531.02"/>
    <poi id="7525239785" type="tourism.apartment" color="207,245,201" layer="3.00" x="298.93" y="597.53"/>
    <poi id="7525239787" type="amenity.cinema" color="237,199,199" layer="4.00" x="287.31" y="603.36"/>
    <poi id="7525248986" type="amenity.bar" color="237,199,199" layer="4.00" x="278.56" y="570.92"/>
    <poi id="7525257086" type="amenity.casino" color="237,199,199" layer="4.00" x="287.13" y="582.81"/>
    <poi id="7525257088" type="tourism.motel" color="207,245,201" layer="3.00" x="274.95" y="584.20"/>
    <poi id="7525296385" type="tourism.motel" color="207,245,201" layer="3.00" x="254.22" y="556.76"/>
    <poi id="7525296386" type="amenity.restaurant" color="237,199,199" layer="4.00" x="248.37" y="547.48"/>
    <poi id="7791956550" type="amenity.parking_entrance" color="237,199,199" layer="4.00" x="108.30" y="85.72"/>
    <poi id="7816880962" type="shop.clothes" color="237,199,255" layer="4.00" x="34.14" y="85.50"/>
    <poi id="7816880963" type="shop.fashion_accessories" color="237,199,255" layer="4.00" x="47.77" y="85.21"/>
</additional>
