<?xml version="1.0" encoding="UTF-8"?>

<!-- generated on 2021-05-17 22:18:32 by Eclipse SUMO duarouter Version 1.9.1
<configuration xmlns:xsi="http://www.w3.org/2001/XMLSchema-instance" xsi:noNamespaceSchemaLocation="http://sumo.dlr.de/xsd/duarouterConfiguration.xsd">

    <input>
        <net-file value="/home/jk/Sumo/2021-05-17-22-18-23/osm.net.xml"/>
        <route-files value="/home/jk/Sumo/2021-05-17-22-18-23/osm.passenger.trips.xml"/>
    </input>

    <output>
        <output-file value="/home/jk/Sumo/2021-05-17-22-18-23/osm.passenger.trips.xml.tmp"/>
        <write-trips value="true"/>
    </output>

    <time>
        <begin value="0"/>
        <end value="3600"/>
    </time>

    <report>
        <no-warnings value="true"/>
        <ignore-errors value="true"/>
        <no-step-log value="true"/>
    </report>

</configuration>
-->

<routes xmlns:xsi="http://www.w3.org/2001/XMLSchema-instance" xsi:noNamespaceSchemaLocation="http://sumo.dlr.de/xsd/routes_file.xsd">
    <vType id="veh_passenger" vClass="passenger"/>
    <trip id="veh0" type="veh_passenger" depart="0.00" departLane="best" from="494317219#2" to="-195718957#3"/>
    <trip id="veh1" type="veh_passenger" depart="3.20" departLane="best" from="-537452104#1" to="-537302257#1"/>
    <trip id="veh2" type="veh_passenger" depart="6.40" departLane="best" from="59150651" to="-469348615"/>
    <trip id="veh3" type="veh_passenger" depart="9.59" departLane="best" from="-98440838#4" to="-195718957#6"/>
    <trip id="veh4" type="veh_passenger" depart="12.79" departLane="best" from="-537300953" to="392180099#1"/>
    <trip id="veh5" type="veh_passenger" depart="15.99" departLane="best" from="495344593" to="469348623"/>
    <trip id="veh6" type="veh_passenger" depart="19.19" departLane="best" from="-537300954#2" to="471664441#0"/>
    <trip id="veh7" type="veh_passenger" depart="22.38" departLane="best" from="537470162" to="-102532327#2"/>
    <trip id="veh8" type="veh_passenger" depart="25.58" departLane="best" from="537470152#1" to="537299507#0"/>
    <trip id="veh9" type="veh_passenger" depart="28.78" departLane="best" from="-589958520" to="-537277441#1"/>
    <trip id="veh10" type="veh_passenger" depart="31.98" departLane="best" from="775445567#0" to="-59150732#1"/>
    <trip id="veh11" type="veh_passenger" depart="35.18" departLane="best" from="-469348623" to="-470910590#0"/>
    <trip id="veh12" type="veh_passenger" depart="38.37" departLane="best" from="537476403#2" to="479980580"/>
    <trip id="veh13" type="veh_passenger" depart="41.57" departLane="best" from="537470157" to="537301342#0"/>
    <trip id="veh14" type="veh_passenger" depart="44.77" departLane="best" departSpeed="max" from="38316109#0" to="929201570#2"/>
    <trip id="veh15" type="veh_passenger" depart="47.97" departLane="best" from="-775445567#0" to="469348627"/>
    <trip id="veh16" type="veh_passenger" depart="51.16" departLane="best" departSpeed="max" from="537472176" to="488604636#2"/>
    <trip id="veh17" type="veh_passenger" depart="54.36" departLane="best" from="554663658" to="470910609#4"/>
    <trip id="veh18" type="veh_passenger" depart="57.56" departLane="best" from="537299508" to="-38316093#0"/>
    <trip id="veh19" type="veh_passenger" depart="60.76" departLane="best" from="-537300961" to="-537472169#0"/>
    <trip id="veh20" type="veh_passenger" depart="63.96" departLane="best" departSpeed="max" from="-42007093#1" to="-537302263"/>
    <trip id="veh21" type="veh_passenger" depart="67.15" departLane="best" departSpeed="max" from="-469348630" to="-537470169#0"/>
    <trip id="veh22" type="veh_passenger" depart="70.35" departLane="best" departSpeed="max" from="494317217#0" to="-775445567#0"/>
    <trip id="veh23" type="veh_passenger" depart="73.55" departLane="best" from="-775445549#1" to="-537301344#1"/>
    <trip id="veh24" type="veh_passenger" depart="76.75" departLane="best" from="-537452099" to="775445566"/>
    <trip id="veh25" type="veh_passenger" depart="79.94" departLane="best" from="495344593" to="479980585#0"/>
    <trip id="veh26" type="veh_passenger" depart="83.14" departLane="best" from="-537277440#1" to="537301342#0"/>
    <trip id="veh27" type="veh_passenger" depart="86.34" departLane="best" from="-494317218" to="-837535482#1"/>
    <trip id="veh28" type="veh_passenger" depart="89.54" departLane="best" from="98440838#2" to="494317219#7"/>
    <trip id="veh29" type="veh_passenger" depart="92.74" departLane="best" from="468467130#0-AddedOffRampEdge" to="537280243#2"/>
    <trip id="veh30" type="veh_passenger" depart="95.93" departLane="best" departSpeed="max" from="537474461#0" to="537452102"/>
    <trip id="veh31" type="veh_passenger" depart="99.13" departLane="best" from="-537301342#0" to="-195718957#8"/>
    <trip id="veh32" type="veh_passenger" depart="102.33" departLane="best" from="-537299519" to="775445567#1"/>
    <trip id="veh33" type="veh_passenger" depart="105.53" departLane="best" from="589958521" to="-537476403#2"/>
    <trip id="veh34" type="veh_passenger" depart="108.72" departLane="best" departSpeed="max" from="495344597" to="-98440838#3"/>
    <trip id="veh35" type="veh_passenger" depart="111.92" departLane="best" from="618443493#0" to="195718957#7"/>
    <trip id="veh36" type="veh_passenger" depart="115.12" departLane="best" from="-537302276" to="-537452102"/>
    <trip id="veh37" type="veh_passenger" depart="118.32" departLane="best" from="468973158#1" to="-537470141#0"/>
    <trip id="veh38" type="veh_passenger" depart="121.52" departLane="best" from="470910602" to="618443489"/>
    <trip id="veh39" type="veh_passenger" depart="124.71" departLane="best" from="-779730403#3" to="-537302253"/>
    <trip id="veh40" type="veh_passenger" depart="127.91" departLane="best" from="98440838#5" to="392180101#1"/>
    <trip id="veh41" type="veh_passenger" depart="131.11" departLane="best" from="-469348615" to="-38316093#0"/>
    <trip id="veh42" type="veh_passenger" depart="134.31" departLane="best" departSpeed="max" from="-470910590#1" to="488604637#4"/>
    <trip id="veh43" type="veh_passenger" depart="137.50" departLane="best" from="537470132#2" to="102532327#5"/>
    <trip id="veh44" type="veh_passenger" depart="140.70" departLane="best" departSpeed="max" from="-392180099#1" to="-929201562#1"/>
    <trip id="veh45" type="veh_passenger" depart="143.90" departLane="best" from="98440838#5" to="468973156#0"/>
    <trip id="veh46" type="veh_passenger" depart="147.10" departLane="best" from="-102532327#3" to="537300954#1"/>
    <trip id="veh47" type="veh_passenger" depart="150.30" departLane="best" from="537277440#4" to="469153034"/>
    <trip id="veh48" type="veh_passenger" depart="153.49" departLane="best" from="-537452099" to="495344589"/>
    <trip id="veh49" type="veh_passenger" depart="156.69" departLane="best" departSpeed="max" from="-470910590#1" to="106520494"/>
    <trip id="veh50" type="veh_passenger" depart="159.89" departLane="best" from="102532327#5" to="775445567#2"/>
    <trip id="veh51" type="veh_passenger" depart="163.09" departLane="best" from="589958521" to="-537470141#0"/>
    <trip id="veh52" type="veh_passenger" depart="166.28" departLane="best" from="37395951#1" to="-537299513"/>
    <trip id="veh53" type="veh_passenger" depart="169.48" departLane="best" from="618443488#6" to="59150641#0"/>
    <trip id="veh54" type="veh_passenger" depart="172.68" departLane="best" from="-537470152#0" to="494317219#6"/>
    <trip id="veh55" type="veh_passenger" depart="175.88" departLane="best" from="476860661#1" to="-537277441#0"/>
    <trip id="veh56" type="veh_passenger" depart="179.08" departLane="best" from="537302262#2" to="469153034"/>
    <trip id="veh57" type="veh_passenger" depart="182.27" departLane="best" from="-102532327#0" to="-59150378#1"/>
    <trip id="veh58" type="veh_passenger" depart="185.47" departLane="best" from="-106520492" to="775445564#0"/>
    <trip id="veh59" type="veh_passenger" depart="188.67" departLane="best" departSpeed="max" from="589958523#0" to="537473697#2"/>
    <trip id="veh60" type="veh_passenger" depart="191.87" departLane="best" departSpeed="max" from="589958523#0" to="775445567#2"/>
    <trip id="veh61" type="veh_passenger" depart="195.06" departLane="best" from="-468973158#1" to="38316104#4"/>
    <trip id="veh62" type="veh_passenger" depart="198.26" departLane="best" from="-392180104#1" to="537302267#2"/>
    <trip id="veh63" type="veh_passenger" depart="201.46" departLane="best" from="106520501#1" to="469348627"/>
    <trip id="veh64" type="veh_passenger" depart="204.66" departLane="best" from="-537452098#0" to="59150647#1"/>
    <trip id="veh65" type="veh_passenger" depart="207.86" departLane="best" from="-98440838#5" to="-537301346#2"/>
    <trip id="veh66" type="veh_passenger" depart="211.05" departLane="best" from="38316109#4" to="537301342#1"/>
    <trip id="veh67" type="veh_passenger" depart="214.25" departLane="best" from="-537299509#0" to="-537474461#0"/>
    <trip id="veh68" type="veh_passenger" depart="217.45" departLane="best" from="98440838#4" to="495344601"/>
    <trip id="veh69" type="veh_passenger" depart="220.65" departLane="best" from="102532327#0" to="407710333"/>
    <trip id="veh70" type="veh_passenger" depart="223.84" departLane="best" from="-470910609#0" to="-537302258"/>
    <trip id="veh71" type="veh_passenger" depart="227.04" departLane="best" from="-589958519" to="471664441#0"/>
    <trip id="veh72" type="veh_passenger" depart="230.24" departLane="best" from="-537301343" to="-537302255#0"/>
    <trip id="veh73" type="veh_passenger" depart="233.44" departLane="best" departSpeed="max" from="-392180105#1" to="488604637#7"/>
    <trip id="veh74" type="veh_passenger" depart="236.63" departLane="best" from="-537301342#0" to="682645263"/>
    <trip id="veh75" type="veh_passenger" depart="239.83" departLane="best" from="554663657" to="-392163930#0"/>
    <trip id="veh76" type="veh_passenger" depart="243.03" departLane="best" from="-537301349" to="507449298#0"/>
    <trip id="veh77" type="veh_passenger" depart="246.23" departLane="best" from="-537300950#1" to="-494317217#0"/>
    <trip id="veh78" type="veh_passenger" depart="249.43" departLane="best" from="772657044" to="470910605#0"/>
    <trip id="veh79" type="veh_passenger" depart="252.62" departLane="best" from="106520499#4" to="537453287#0"/>
    <trip id="veh80" type="veh_passenger" depart="255.82" departLane="best" from="537470159#0" to="-537300951#2"/>
    <trip id="veh81" type="veh_passenger" depart="259.02" departLane="best" from="-469348626#1" to="102532344#3"/>
    <trip id="veh82" type="veh_passenger" depart="262.22" departLane="best" from="-98440838#5" to="37395951#1"/>
    <trip id="veh83" type="veh_passenger" depart="265.41" departLane="best" from="537300957#1" to="537277440#3"/>
    <trip id="veh84" type="veh_passenger" depart="268.61" departLane="best" from="929201570#2" to="-470910592#1"/>
    <trip id="veh85" type="veh_passenger" depart="271.81" departLane="best" from="-79613904" to="-618443482#1"/>
    <trip id="veh86" type="veh_passenger" depart="275.01" departLane="best" from="554663658" to="-537452104#1"/>
    <trip id="veh87" type="veh_passenger" depart="278.21" departLane="best" departSpeed="max" from="-537280243#2" to="195718957#1"/>
    <trip id="veh88" type="veh_passenger" depart="281.40" departLane="best" from="-98440838#4" to="-537470169#1"/>
    <trip id="veh89" type="veh_passenger" depart="284.60" departLane="best" from="-537302261#0" to="775445548#1"/>
    <trip id="veh90" type="veh_passenger" depart="287.80" departLane="best" from="102532327#1" to="589958519"/>
    <trip id="veh91" type="veh_passenger" depart="291.00" departLane="best" departSpeed="max" from="392180104#0" to="-38316093#5"/>
    <trip id="veh92" type="veh_passenger" depart="294.19" departLane="best" from="98440838#6" to="537476403#2"/>
    <trip id="veh93" type="veh_passenger" depart="297.39" departLane="best" from="79613689" to="775445549#1"/>
    <trip id="veh94" type="veh_passenger" depart="300.59" departLane="best" from="195718957#2" to="-537301348#0"/>
    <trip id="veh95" type="veh_passenger" depart="303.79" departLane="best" from="-779730403#5" to="-38316104#3"/>
    <trip id="veh96" type="veh_passenger" depart="306.99" departLane="best" from="-775445567#0" to="98440838#5"/>
    <trip id="veh97" type="veh_passenger" depart="310.18" departLane="best" from="-537452098#0" to="537453286#3"/>
    <trip id="veh98" type="veh_passenger" depart="313.38" departLane="best" from="102532327#5" to="102532329"/>
    <trip id="veh99" type="veh_passenger" depart="316.58" departLane="best" from="775445567#0" to="98440838#7"/>
    <trip id="veh100" type="veh_passenger" depart="319.78" departLane="best" from="468467130#0" to="537300952"/>
    <trip id="veh101" type="veh_passenger" depart="322.97" departLane="best" from="-488604637#0" to="-537472176"/>
    <trip id="veh102" type="veh_passenger" depart="326.17" departLane="best" from="79613689" to="470910609#4"/>
    <trip id="veh103" type="veh_passenger" depart="329.37" departLane="best" from="38316639#0" to="537302258"/>
    <trip id="veh104" type="veh_passenger" depart="332.57" departLane="best" from="-392163930#3" to="470910615#1"/>
    <trip id="veh105" type="veh_passenger" depart="335.77" departLane="best" from="37395951#2" to="556954299"/>
    <trip id="veh106" type="veh_passenger" depart="338.96" departLane="best" from="-488604637#4" to="779730403#5"/>
    <trip id="veh107" type="veh_passenger" depart="342.16" departLane="best" departSpeed="max" from="-42007093#1" to="-537300949#0"/>
    <trip id="veh108" type="veh_passenger" depart="345.36" departLane="best" from="470910615#1" to="537277441#1"/>
    <trip id="veh109" type="veh_passenger" depart="348.56" departLane="best" from="-537301347" to="-476450017"/>
    <trip id="veh110" type="veh_passenger" depart="351.75" departLane="best" from="59150647#4" to="-537452101"/>
    <trip id="veh111" type="veh_passenger" depart="354.95" departLane="best" from="470910615#0" to="488604636#2"/>
    <trip id="veh112" type="veh_passenger" depart="358.15" departLane="best" from="-98440838#3" to="470910615#1"/>
    <trip id="veh113" type="veh_passenger" depart="361.35" departLane="best" from="38316093#6" to="775445565#1"/>
    <trip id="veh114" type="veh_passenger" depart="364.55" departLane="best" from="-537299512#0" to="537300951#0"/>
    <trip id="veh115" type="veh_passenger" depart="367.74" departLane="best" from="507449295" to="-537472177#1"/>
    <trip id="veh116" type="veh_passenger" depart="370.94" departLane="best" from="-537470175#1" to="537302261#1"/>
    <trip id="veh117" type="veh_passenger" depart="374.14" departLane="best" departSpeed="max" from="-392180105#1" to="195718957#7"/>
    <trip id="veh118" type="veh_passenger" depart="377.34" departLane="best" departSpeed="max" from="-392180105#1" to="-537301347"/>
    <trip id="veh119" type="veh_passenger" depart="380.53" departLane="best" from="-537452098#0" to="775445564#3"/>
    <trip id="veh120" type="veh_passenger" depart="383.73" departLane="best" from="589958523#1" to="59150654#2"/>
    <trip id="veh121" type="veh_passenger" depart="386.93" departLane="best" from="-775445549#1" to="-537280230#2"/>
    <trip id="veh122" type="veh_passenger" depart="390.13" departLane="best" from="537473697#0" to="537299510#1"/>
    <trip id="veh123" type="veh_passenger" depart="393.33" departLane="best" from="477784541#1" to="98440838#6"/>
    <trip id="veh124" type="veh_passenger" depart="396.52" departLane="best" departSpeed="max" from="495344597" to="-102532327#2"/>
    <trip id="veh125" type="veh_passenger" depart="399.72" departLane="best" from="537470174#1" to="-537472177#1"/>
    <trip id="veh126" type="veh_passenger" depart="402.92" departLane="best" from="495352114" to="775445567#0"/>
    <trip id="veh127" type="veh_passenger" depart="406.12" departLane="best" from="-537452101" to="479980581#1"/>
    <trip id="veh128" type="veh_passenger" depart="409.31" departLane="best" from="537300949#2" to="-537300960#0"/>
    <trip id="veh129" type="veh_passenger" depart="412.51" departLane="best" departSpeed="max" from="494317217#0" to="-537470141#1"/>
    <trip id="veh130" type="veh_passenger" depart="415.71" departLane="best" from="195718957#4" to="682645263"/>
    <trip id="veh131" type="veh_passenger" depart="418.91" departLane="best" from="537476403#0" to="-469348626#0"/>
    <trip id="veh132" type="veh_passenger" depart="422.11" departLane="best" from="-98440838#5" to="-537470162"/>
    <trip id="veh133" type="veh_passenger" depart="425.30" departLane="best" from="-102532327#1" to="537452100#2"/>
    <trip id="veh134" type="veh_passenger" depart="428.50" departLane="best" from="494317218" to="-537470137#1"/>
    <trip id="veh135" type="veh_passenger" depart="431.70" departLane="best" from="537301346#0" to="469348627"/>
    <trip id="veh136" type="veh_passenger" depart="434.90" departLane="best" departSpeed="max" from="-98440838#7" to="-102532327#3"/>
    <trip id="veh137" type="veh_passenger" depart="438.09" departLane="best" departSpeed="max" from="-407712053" to="59150732#0"/>
    <trip id="veh138" type="veh_passenger" depart="441.29" departLane="best" from="618443484#2" to="469348624#0"/>
    <trip id="veh139" type="veh_passenger" depart="444.49" departLane="best" from="537473697#1" to="470910614#1"/>
    <trip id="veh140" type="veh_passenger" depart="447.69" departLane="best" departSpeed="max" from="-488604636#2" to="-488604636#0"/>
    <trip id="veh141" type="veh_passenger" depart="450.89" departLane="best" from="-537470169#1" to="618443490"/>
    <trip id="veh142" type="veh_passenger" depart="454.08" departLane="best" from="537470141#0" to="589957708#1"/>
    <trip id="veh143" type="veh_passenger" depart="457.28" departLane="best" from="59150732#1" to="-537301345"/>
    <trip id="veh144" type="veh_passenger" depart="460.48" departLane="best" from="-537302261#0" to="-470910602"/>
    <trip id="veh145" type="veh_passenger" depart="463.68" departLane="best" from="537452103" to="59150732#1"/>
    <trip id="veh146" type="veh_passenger" depart="466.87" departLane="best" from="-837535482#2" to="488604636#2"/>
    <trip id="veh147" type="veh_passenger" depart="470.07" departLane="best" from="-488604637#0" to="775445564#1"/>
    <trip id="veh148" type="veh_passenger" depart="473.27" departLane="best" from="556954300" to="98440838#1"/>
    <trip id="veh149" type="veh_passenger" depart="476.47" departLane="best" from="-195718957#3" to="537301347"/>
    <trip id="veh150" type="veh_passenger" depart="479.67" departLane="best" from="-537476403#1" to="775445564#2"/>
    <trip id="veh151" type="veh_passenger" depart="482.86" departLane="best" from="537470147#1" to="589958520"/>
    <trip id="veh152" type="veh_passenger" depart="486.06" departLane="best" from="537470169#0" to="-537470144#0"/>
    <trip id="veh153" type="veh_passenger" depart="489.26" departLane="best" from="537453286#3" to="-470910609#2"/>
    <trip id="veh154" type="veh_passenger" depart="492.46" departLane="best" from="589957708#1" to="556954308"/>
    <trip id="veh155" type="veh_passenger" depart="495.65" departLane="best" from="-537300956" to="537470174#1"/>
    <trip id="veh156" type="veh_passenger" depart="498.85" departLane="best" from="102532334#1" to="-537474459"/>
    <trip id="veh157" type="veh_passenger" depart="502.05" departLane="best" from="537470137#1" to="-537302261#0"/>
    <trip id="veh158" type="veh_passenger" depart="505.25" departLane="best" from="-537473697#1" to="589958521"/>
    <trip id="veh159" type="veh_passenger" depart="508.45" departLane="best" from="779730403#3" to="-537470171#0"/>
    <trip id="veh160" type="veh_passenger" depart="511.64" departLane="best" from="494317219#5" to="-98440838#4"/>
    <trip id="veh161" type="veh_passenger" depart="514.84" departLane="best" departSpeed="max" from="929201567" to="469011789#1"/>
    <trip id="veh162" type="veh_passenger" depart="518.04" departLane="best" departSpeed="max" from="775445548#0" to="-476450014#0"/>
    <trip id="veh163" type="veh_passenger" depart="521.24" departLane="best" from="837535479" to="-537299513"/>
    <trip id="veh164" type="veh_passenger" depart="524.43" departLane="best" departSpeed="max" from="779730403#0" to="-537470141#3"/>
    <trip id="veh165" type="veh_passenger" depart="527.63" departLane="best" departSpeed="max" from="-470910590#1" to="106520494"/>
    <trip id="veh166" type="veh_passenger" depart="530.83" departLane="best" from="537300957#1" to="-537476403#1"/>
    <trip id="veh167" type="veh_passenger" depart="534.03" departLane="best" from="476450015#1" to="392180104#1"/>
    <trip id="veh168" type="veh_passenger" depart="537.23" departLane="best" departSpeed="max" from="-775445567#2" to="470910609#4"/>
    <trip id="veh169" type="veh_passenger" depart="540.42" departLane="best" from="-537302263" to="537299517#0"/>
    <trip id="veh170" type="veh_passenger" depart="543.62" departLane="best" from="-102532327#0" to="775445549#1"/>
    <trip id="veh171" type="veh_passenger" depart="546.82" departLane="best" from="38316109#3" to="537300954#0"/>
    <trip id="veh172" type="veh_passenger" depart="550.02" departLane="best" from="537301346#2" to="507449298#2"/>
    <trip id="veh173" type="veh_passenger" depart="553.21" departLane="best" departSpeed="max" from="495628566#0" to="-59150651"/>
    <trip id="veh174" type="veh_passenger" depart="556.41" departLane="best" from="-537470174#1" to="554663657"/>
    <trip id="veh175" type="veh_passenger" depart="559.61" departLane="best" from="537300951#0" to="-537473695"/>
    <trip id="veh176" type="veh_passenger" depart="562.81" departLane="best" from="-537470171#0" to="102532327#1"/>
    <trip id="veh177" type="veh_passenger" depart="566.01" departLane="best" departSpeed="max" from="-470910609#4" to="102532327#5"/>
    <trip id="veh178" type="veh_passenger" depart="569.20" departLane="best" departSpeed="max" from="775445548#0" to="537280230#2"/>
    <trip id="veh179" type="veh_passenger" depart="572.40" departLane="best" from="618443484#0" to="488400678#1"/>
    <trip id="veh180" type="veh_passenger" depart="575.60" departLane="best" from="-537470159#0" to="469348626#0"/>
    <trip id="veh181" type="veh_passenger" depart="578.80" departLane="best" from="-102532327#0" to="-537470176"/>
    <trip id="veh182" type="veh_passenger" depart="581.99" departLane="best" departSpeed="max" from="-98440838#7" to="470910613#0"/>
    <trip id="veh183" type="veh_passenger" depart="585.19" departLane="best" departSpeed="max" from="495344597" to="37395951#0"/>
    <trip id="veh184" type="veh_passenger" depart="588.39" departLane="best" from="102532327#1" to="-537301348#0"/>
    <trip id="veh185" type="veh_passenger" depart="591.59" departLane="best" from="106520499#5" to="618443493#2"/>
    <trip id="veh186" type="veh_passenger" depart="594.79" departLane="best" from="537470141#0" to="-537299506#0"/>
    <trip id="veh187" type="veh_passenger" depart="597.98" departLane="best" from="-468973158#0" to="392180105#1"/>
    <trip id="veh188" type="veh_passenger" depart="601.18" departLane="best" departSpeed="max" from="494317217#0" to="-59150731"/>
    <trip id="veh189" type="veh_passenger" depart="604.38" departLane="best" from="537470175#0" to="537302261#1"/>
    <trip id="veh190" type="veh_passenger" depart="607.58" departLane="best" from="507449296#1" to="-537302258"/>
    <trip id="veh191" type="veh_passenger" depart="610.77" departLane="best" from="-537299507#3" to="-195718957#2"/>
    <trip id="veh192" type="veh_passenger" depart="613.97" departLane="best" from="-537302256" to="38315375#3"/>
    <trip id="veh193" type="veh_passenger" depart="617.17" departLane="best" from="554658423" to="-392180098#0"/>
    <trip id="veh194" type="veh_passenger" depart="620.37" departLane="best" from="-98440838#1" to="488604637#7"/>
    <trip id="veh195" type="veh_passenger" depart="623.57" departLane="best" departSpeed="max" from="495344597" to="-102532327#1"/>
    <trip id="veh196" type="veh_passenger" depart="626.76" departLane="best" from="537302255#0" to="537452099"/>
    <trip id="veh197" type="veh_passenger" depart="629.96" departLane="best" from="-470674290#1" to="102532334#0"/>
    <trip id="veh198" type="veh_passenger" depart="633.16" departLane="best" from="-537280230#1" to="775445567#2"/>
    <trip id="veh199" type="veh_passenger" depart="636.36" departLane="best" from="-537302260" to="554663657"/>
    <trip id="veh200" type="veh_passenger" depart="639.55" departLane="best" from="102532329" to="537470152#0"/>
    <trip id="veh201" type="veh_passenger" depart="642.75" departLane="best" departSpeed="max" from="495628566#0" to="98440838#6"/>
    <trip id="veh202" type="veh_passenger" depart="645.95" departLane="best" from="470910615#1" to="775445567#2"/>
    <trip id="veh203" type="veh_passenger" depart="649.15" departLane="best" from="59150649" to="480013005"/>
    <trip id="veh204" type="veh_passenger" depart="652.34" departLane="best" from="537300950#1" to="392180099#1"/>
    <trip id="veh205" type="veh_passenger" depart="655.54" departLane="best" departSpeed="max" from="537472176" to="469348626#0"/>
    <trip id="veh206" type="veh_passenger" depart="658.74" departLane="best" from="59150731" to="537302255#0"/>
    <trip id="veh207" type="veh_passenger" depart="661.94" departLane="best" from="106520501#1" to="-537470132#2"/>
    <trip id="veh208" type="veh_passenger" depart="665.14" departLane="best" from="-537302258" to="494317219#5"/>
    <trip id="veh209" type="veh_passenger" depart="668.33" departLane="best" from="537302268" to="407712053"/>
    <trip id="veh210" type="veh_passenger" depart="671.53" departLane="best" from="488400678#1" to="-537470157"/>
    <trip id="veh211" type="veh_passenger" depart="674.73" departLane="best" departSpeed="max" from="-407712053" to="-537470175#0"/>
    <trip id="veh212" type="veh_passenger" depart="677.93" departLane="best" from="-537452101" to="-589958519"/>
    <trip id="veh213" type="veh_passenger" depart="681.12" departLane="best" from="38316111#0" to="-495344591"/>
    <trip id="veh214" type="veh_passenger" depart="684.32" departLane="best" from="-537301344#0" to="537299504#2"/>
    <trip id="veh215" type="veh_passenger" depart="687.52" departLane="best" from="537299509#1" to="-38316109#0"/>
    <trip id="veh216" type="veh_passenger" depart="690.72" departLane="best" from="-929201562#1" to="469348615"/>
    <trip id="veh217" type="veh_passenger" depart="693.92" departLane="best" from="-98440838#3" to="671264865"/>
    <trip id="veh218" type="veh_passenger" depart="697.11" departLane="best" from="470910599" to="537299505#3"/>
    <trip id="veh219" type="veh_passenger" depart="700.31" departLane="best" from="554661205" to="537302271"/>
    <trip id="veh220" type="veh_passenger" depart="703.51" departLane="best" from="-775445567#0" to="-102532327#1"/>
    <trip id="veh221" type="veh_passenger" depart="706.71" departLane="best" from="-59150658#0" to="537302261#1"/>
    <trip id="veh222" type="veh_passenger" depart="709.90" departLane="best" from="554658426" to="775445567#2"/>
    <trip id="veh223" type="veh_passenger" depart="713.10" departLane="best" from="-98440838#3" to="537302257#2"/>
    <trip id="veh224" type="veh_passenger" depart="716.30" departLane="best" from="392180098#1" to="479980580"/>
    <trip id="veh225" type="veh_passenger" depart="719.50" departLane="best" departSpeed="max" from="-98440838#7" to="-195718957#5"/>
    <trip id="veh226" type="veh_passenger" depart="722.70" departLane="best" from="-556954303" to="537280230#5"/>
    <trip id="veh227" type="veh_passenger" depart="725.89" departLane="best" from="-837535480" to="-537299504#0"/>
    <trip id="veh228" type="veh_passenger" depart="729.09" departLane="best" from="106520488" to="-488604636#0"/>
    <trip id="veh229" type="veh_passenger" depart="732.29" departLane="best" from="479980585#2" to="-195718957#4"/>
    <trip id="veh230" type="veh_passenger" depart="735.49" departLane="best" departSpeed="max" from="-775445567#2" to="470910592#0"/>
    <trip id="veh231" type="veh_passenger" depart="738.68" departLane="best" from="-195718957#4" to="495344591"/>
    <trip id="veh232" type="veh_passenger" depart="741.88" departLane="best" from="-38316109#1" to="-837535482#0"/>
    <trip id="veh233" type="veh_passenger" depart="745.08" departLane="best" from="-537299520" to="-59150647#2"/>
    <trip id="veh234" type="veh_passenger" depart="748.28" departLane="best" departSpeed="max" from="537302262#0" to="-837535482#1"/>
    <trip id="veh235" type="veh_passenger" depart="751.48" departLane="best" from="537302255#1" to="537473697#2"/>
    <trip id="veh236" type="veh_passenger" depart="754.67" departLane="best" departSpeed="max" from="-537302261#1" to="-392180105#0"/>
    <trip id="veh237" type="veh_passenger" depart="757.87" departLane="best" from="-106520488" to="469153034"/>
    <trip id="veh238" type="veh_passenger" depart="761.07" departLane="best" from="98440838#6" to="-775445548#0"/>
    <trip id="veh239" type="veh_passenger" depart="764.27" departLane="best" from="495344594" to="537453285#3"/>
    <trip id="veh240" type="veh_passenger" depart="767.46" departLane="best" departSpeed="max" from="495344597" to="537302261#1"/>
    <trip id="veh241" type="veh_passenger" depart="770.66" departLane="best" from="775445564#2" to="-537300959#1"/>
    <trip id="veh242" type="veh_passenger" depart="773.86" departLane="best" from="-195718957#1" to="-537277441#0"/>
    <trip id="veh243" type="veh_passenger" depart="777.06" departLane="best" departSpeed="max" from="-470910609#4" to="507449298#1"/>
    <trip id="veh244" type="veh_passenger" depart="780.26" departLane="best" from="469011788#1" to="-537301351#3"/>
    <trip id="veh245" type="veh_passenger" depart="783.45" departLane="best" from="537299505#3" to="537302272#1"/>
    <trip id="veh246" type="veh_passenger" depart="786.65" departLane="best" from="-507449294" to="479980582"/>