<?xml version="1.0" encoding="UTF-8"?>

<!-- generated on 2021-05-17 22:44:05 by Eclipse SUMO netedit Version 1.9.1
<configuration xmlns:xsi="http://www.w3.org/2001/XMLSchema-instance" xsi:noNamespaceSchemaLocation="http://sumo.dlr.de/xsd/netconvertConfiguration.xsd">

    <input>
        <sumo-net-file value="/home/home/Project/sumo_RL/suwonStation/osm.net.xml"/>
    </input>

    <output>
        <output-file value="/home/home/Project/sumo_RL/suwonStation/osm.net.xml"/>
        <output.street-names value="true"/>
    </output>

    <processing>
        <geometry.min-radius.fix.railways value="false"/>
        <geometry.max-grade.fix value="false"/>
        <offset.disable-normalization value="true"/>
        <lefthand value="false"/>
    </processing>

    <junctions>
        <no-turnarounds value="true"/>
        <junctions.corner-detail value="5"/>
        <junctions.limit-turn-speed value="5.5"/>
        <rectangular-lane-cut value="false"/>
    </junctions>

    <pedestrian>
        <walkingareas value="false"/>
    </pedestrian>

    <report>
        <aggregate-warnings value="5"/>
    </report>

</configuration>
-->

<additional xmlns:xsi="http://www.w3.org/2001/XMLSchema-instance" xsi:noNamespaceSchemaLocation="http://sumo.dlr.de/xsd/additional_file.xsd">
    <tlLogic id="5203384437" type="static" programID="0" offset="0">
        <phase duration="39" state="GGggrrrGGGg"/>
        <phase duration="6" state="yyyyrrryyyy"/>
        <phase duration="39" state="rrrrGGgGrrr"/>
        <phase duration="6" state="rrrryyyyrrr"/>
    </tlLogic>
</additional>
