<?xml version="1.0" encoding="UTF-8"?>

<!-- generated on 2021-05-17 22:18:33 by Eclipse SUMO duarouter Version 1.9.1
<configuration xmlns:xsi="http://www.w3.org/2001/XMLSchema-instance" xsi:noNamespaceSchemaLocation="http://sumo.dlr.de/xsd/duarouterConfiguration.xsd">

    <input>
        <net-file value="/home/jk/Sumo/2021-05-17-22-18-23/osm.net.xml"/>
        <route-files value="/home/jk/Sumo/2021-05-17-22-18-23/osm.truck.trips.xml"/>
    </input>

    <output>
        <output-file value="/home/jk/Sumo/2021-05-17-22-18-23/osm.truck.trips.xml.tmp"/>
        <write-trips value="true"/>
    </output>

    <time>
        <begin value="0"/>
        <end value="3600"/>
    </time>

    <report>
        <no-warnings value="true"/>
        <ignore-errors value="true"/>
        <no-step-log value="true"/>
    </report>

</configuration>
-->

<routes xmlns:xsi="http://www.w3.org/2001/XMLSchema-instance" xsi:noNamespaceSchemaLocation="http://sumo.dlr.de/xsd/routes_file.xsd">
    <vType id="truck_truck" vClass="truck"/>
    <trip id="truck0" type="truck_truck" depart="0.00" departLane="best" departSpeed="max" from="495344597" to="-38315375#6"/>
    <trip id="truck1" type="truck_truck" depart="4.80" departLane="best" from="537301347" to="507449298#0"/>
    <trip id="truck2" type="truck_truck" depart="9.59" departLane="best" from="59150378#1" to="-470674290#0"/>
    <trip id="truck3" type="truck_truck" depart="14.39" departLane="best" from="-929201562#2" to="-38316093#0"/>
    <trip id="truck4" type="truck_truck" depart="19.19" departLane="best" from="-537300951#2" to="392180099#1"/>
    <trip id="truck5" type="truck_truck" depart="23.98" departLane="best" from="-38316093#6" to="-537300953"/>
    <trip id="truck6" type="truck_truck" depart="28.78" departLane="best" departSpeed="max" from="495628566#0" to="469153034"/>
    <trip id="truck7" type="truck_truck" depart="33.58" departLane="best" from="-537300953" to="470910609#1"/>
    <trip id="truck8" type="truck_truck" depart="38.37" departLane="best" from="537470152#0" to="-106520492"/>
    <trip id="truck9" type="truck_truck" depart="43.17" departLane="best" from="537470147#1" to="537299504#1"/>
    <trip id="truck10" type="truck_truck" depart="47.97" departLane="best" from="-537472168#1" to="-537277441#0"/>
    <trip id="truck11" type="truck_truck" depart="52.76" departLane="best" from="775445563" to="-537474459"/>
    <trip id="truck12" type="truck_truck" depart="57.56" departLane="best" departSpeed="max" from="-469348627" to="-470910602"/>
    <trip id="truck13" type="truck_truck" depart="62.36" departLane="best" from="537473699#1" to="471664440#1"/>
    <trip id="truck14" type="truck_truck" depart="67.15" departLane="best" from="468467130#0" to="779730403#3"/>
    <trip id="truck15" type="truck_truck" depart="71.95" departLane="best" from="-59150658#1" to="469348615"/>
    <trip id="truck16" type="truck_truck" depart="76.75" departLane="best" from="537472168#1" to="479980579#2"/>
    <trip id="truck17" type="truck_truck" depart="81.54" departLane="best" from="554658423" to="470910592#0"/>
    <trip id="truck18" type="truck_truck" depart="86.34" departLane="best" from="537300949#0" to="-38316104#5"/>
    <trip id="truck19" type="truck_truck" depart="91.14" departLane="best" departSpeed="max" from="-469153034" to="-537302255#0"/>
    <trip id="truck20" type="truck_truck" depart="95.93" departLane="best" from="-470674290#1" to="-537470132#1"/>
    <trip id="truck21" type="truck_truck" depart="100.73" departLane="best" from="495344591" to="-59150658#0"/>
    <trip id="truck22" type="truck_truck" depart="105.53" departLane="best" from="-59150647#2" to="-537300960#0"/>
    <trip id="truck23" type="truck_truck" depart="110.32" departLane="best" from="-537302267#0" to="618443493#4"/>
    <trip id="truck25" type="truck_truck" depart="119.92" departLane="best" from="-537277440#0" to="537300953"/>
    <trip id="truck26" type="truck_truck" depart="124.71" departLane="best" from="-494317218" to="-772655170"/>
    <trip id="truck27" type="truck_truck" depart="129.51" departLane="best" departSpeed="max" from="929201567" to="488604637#2"/>
    <trip id="truck28" type="truck_truck" depart="134.31" departLane="best" from="-537300958" to="-38316093#1"/>
    <trip id="truck29" type="truck_truck" depart="139.10" departLane="best" from="556954303" to="-537472169#0"/>
    <trip id="truck30" type="truck_truck" depart="143.90" departLane="best" from="507449294" to="-775445567#1"/>
    <trip id="truck31" type="truck_truck" depart="148.70" departLane="best" from="618443484#1" to="195718957#4"/>
    <trip id="truck32" type="truck_truck" depart="153.49" departLane="best" from="470674290#1" to="-537452101"/>
    <trip id="truck33" type="truck_truck" depart="158.29" departLane="best" from="-775445564#0" to="-537301344#1"/>
    <trip id="truck34" type="truck_truck" depart="163.09" departLane="best" from="98440838#4" to="392180101#0"/>
    <trip id="truck35" type="truck_truck" depart="167.88" departLane="best" departSpeed="max" from="-469348627" to="-38316104#6"/>
    <trip id="truck36" type="truck_truck" depart="172.68" departLane="best" from="98440838#2" to="42007093#1"/>
    <trip id="truck37" type="truck_truck" depart="177.48" departLane="best" departSpeed="max" from="779730403#0" to="537472177#1"/>
    <trip id="truck38" type="truck_truck" depart="182.27" departLane="best" from="556954302#2" to="-537452102"/>
    <trip id="truck39" type="truck_truck" depart="187.07" departLane="best" departSpeed="max" from="38316104#0" to="-537299509#1"/>
    <trip id="truck40" type="truck_truck" depart="191.87" departLane="best" from="479980585#1" to="-537277441#0"/>
    <trip id="truck41" type="truck_truck" depart="196.66" departLane="best" from="537452101" to="42007093#1"/>
    <trip id="truck42" type="truck_truck" depart="201.46" departLane="best" from="-102532327#0" to="-537472176"/>
    <trip id="truck43" type="truck_truck" depart="206.26" departLane="best" from="-38315375#4" to="618443488#5"/>
    <trip id="truck44" type="truck_truck" depart="211.05" departLane="best" from="556954309" to="537470159#1"/>
    <trip id="truck45" type="truck_truck" depart="215.85" departLane="best" from="-537470141#2" to="-38316111#2"/>
    <trip id="truck46" type="truck_truck" depart="220.65" departLane="best" from="556954308" to="772655168#1"/>
    <trip id="truck47" type="truck_truck" depart="225.44" departLane="best" from="-469348624#0" to="38316104#5"/>
    <trip id="truck48" type="truck_truck" depart="230.24" departLane="best" departSpeed="max" from="-42007093#1" to="537302255#2"/>
    <trip id="truck49" type="truck_truck" depart="235.04" departLane="best" from="37395951#1" to="469348614#1"/>
    <trip id="truck50" type="truck_truck" depart="239.83" departLane="best" from="-537302264" to="554658425"/>
    <trip id="truck51" type="truck_truck" depart="244.63" departLane="best" from="-929201570#1" to="-537300960#0"/>
    <trip id="truck52" type="truck_truck" depart="249.43" departLane="best" from="468467130#2" to="537300954#0"/>
    <trip id="truck53" type="truck_truck" depart="254.22" departLane="best" from="-537299509#1" to="-537470176"/>
    <trip id="truck54" type="truck_truck" depart="259.02" departLane="best" from="98440838#1" to="494317219#1"/>
    <trip id="truck55" type="truck_truck" depart="263.82" departLane="best" from="-470910609#2" to="-537301348#0"/>
    <trip id="truck56" type="truck_truck" depart="268.61" departLane="best" from="-537470175#1" to="470910609#0"/>
    <trip id="truck57" type="truck_truck" depart="273.41" departLane="best" departSpeed="max" from="-42007093#1" to="480013008#1"/>
    <trip id="truck58" type="truck_truck" depart="278.21" departLane="best" from="537476403#1" to="-392180104#2"/>
    <trip id="truck59" type="truck_truck" depart="283.00" departLane="best" from="-537301345" to="495352112"/>
    <trip id="truck60" type="truck_truck" depart="287.80" departLane="best" from="-537300949#2" to="-494317217#0"/>
    <trip id="truck61" type="truck_truck" depart="292.60" departLane="best" from="682645263" to="470674291"/>
    <trip id="truck62" type="truck_truck" depart="297.39" departLane="best" from="537470149#0" to="-537299520"/>
    <trip id="truck63" type="truck_truck" depart="302.19" departLane="best" departSpeed="max" from="-469348630" to="102532327#5"/>
    <trip id="truck64" type="truck_truck" depart="306.99" departLane="best" from="-929201570#1" to="37395951#2"/>
    <trip id="truck65" type="truck_truck" depart="311.78" departLane="best" from="-775445566" to="-537474461#0"/>
    <trip id="truck66" type="truck_truck" depart="316.58" departLane="best" from="-537302255#0" to="618443485#1"/>
    <trip id="truck67" type="truck_truck" depart="321.38" departLane="best" from="102532334#1" to="537473695"/>
    <trip id="truck68" type="truck_truck" depart="326.17" departLane="best" from="469348614#1" to="-38316109#0"/>
    <trip id="truck69" type="truck_truck" depart="330.97" departLane="best" from="98440838#6" to="537470166"/>
    <trip id="truck70" type="truck_truck" depart="335.77" departLane="best" departSpeed="max" from="779730403#0" to="618443488#2"/>
    <trip id="truck71" type="truck_truck" depart="340.56" departLane="best" departSpeed="max" from="537474459" to="-537299504#0"/>
    <trip id="truck72" type="truck_truck" depart="345.36" departLane="best" from="38315375#4" to="-537300960#1"/>
    <trip id="truck73" type="truck_truck" depart="350.16" departLane="best" from="-775445564#2" to="-392163930#0"/>
    <trip id="truck74" type="truck_truck" depart="354.95" departLane="best" from="-59150658#1" to="929201562#1"/>
    <trip id="truck75" type="truck_truck" depart="359.75" departLane="best" from="775445563" to="98440838#6"/>
    <trip id="truck76" type="truck_truck" depart="364.55" departLane="best" from="-488604637#6" to="775445564#3"/>
    <trip id="truck77" type="truck_truck" depart="369.34" departLane="best" departSpeed="max" from="-469153034" to="-537299517#0"/>
    <trip id="truck78" type="truck_truck" depart="374.14" departLane="best" from="476860661#0" to="507449296#1"/>
    <trip id="truck79" type="truck_truck" depart="378.94" departLane="best" from="-537301343" to="-479980580"/>
    <trip id="truck80" type="truck_truck" depart="383.73" departLane="best" from="589958523#2" to="-537302263"/>
    <trip id="truck81" type="truck_truck" depart="388.53" departLane="best" from="476450017" to="479980580"/>
    <trip id="truck82" type="truck_truck" depart="393.33" departLane="best" from="392163930#3" to="618443493#2"/>
    <trip id="truck83" type="truck_truck" depart="398.12" departLane="best" from="-537301346#0" to="-775445567#1"/>
    <trip id="truck84" type="truck_truck" depart="402.92" departLane="best" from="537280230#0" to="-537470164"/>
    <trip id="truck85" type="truck_truck" depart="407.72" departLane="best" departSpeed="max" from="-42007093#1" to="195718957#3"/>
    <trip id="truck86" type="truck_truck" depart="412.51" departLane="best" from="-537302264" to="618443493#1"/>
    <trip id="truck87" type="truck_truck" depart="417.31" departLane="best" from="589957708#1" to="556954298"/>
    <trip id="truck88" type="truck_truck" depart="422.11" departLane="best" from="537472171" to="537299506#1"/>
    <trip id="truck89" type="truck_truck" depart="426.90" departLane="best" from="480013005" to="929201570#0"/>
    <trip id="truck90" type="truck_truck" depart="431.70" departLane="best" departSpeed="max" from="-470910590#1" to="469348622"/>
    <trip id="truck91" type="truck_truck" depart="436.50" departLane="best" from="495344589" to="-537452102"/>
    <trip id="truck92" type="truck_truck" depart="441.29" departLane="best" from="537473697#2" to="-470910593#0"/>
    <trip id="truck93" type="truck_truck" depart="446.09" departLane="best" from="-929201570#1" to="-537470132#0"/>
    <trip id="truck94" type="truck_truck" depart="450.89" departLane="best" from="-102532327#3" to="537302261#1"/>
    <trip id="truck95" type="truck_truck" depart="455.68" departLane="best" from="495344594" to="-537452100#6"/>
    <trip id="truck96" type="truck_truck" depart="460.48" departLane="best" from="537301351#0" to="469348615"/>
    <trip id="truck97" type="truck_truck" depart="465.28" departLane="best" from="-98440838#3" to="-195718957#2"/>
    <trip id="truck98" type="truck_truck" depart="470.07" departLane="best" from="-468973158#0" to="556954302#0"/>
    <trip id="truck99" type="truck_truck" depart="474.87" departLane="best" from="59150654#2" to="469153034"/>
    <trip id="truck100" type="truck_truck" depart="479.67" departLane="best" from="537472172" to="470910594"/>
    <trip id="truck101" type="truck_truck" depart="484.46" departLane="best" from="59150647#4" to="-537300960#0"/>
    <trip id="truck102" type="truck_truck" depart="489.26" departLane="best" from="-537302254" to="-470910609#2"/>
    <trip id="truck103" type="truck_truck" depart="494.06" departLane="best" from="537452103" to="556954302#2"/>
    <trip id="truck104" type="truck_truck" depart="498.85" departLane="best" from="-488604637#1" to="618443488#6"/>
    <trip id="truck105" type="truck_truck" depart="503.65" departLane="best" from="537470152#1" to="556954301"/>
    <trip id="truck106" type="truck_truck" depart="508.45" departLane="best" from="-537470173#0" to="618443489"/>
    <trip id="truck107" type="truck_truck" depart="513.24" departLane="best" from="537470141#4" to="537473697#2"/>
    <trip id="truck108" type="truck_truck" depart="518.04" departLane="best" from="537453286#1" to="-470910615#0"/>
    <trip id="truck109" type="truck_truck" depart="522.84" departLane="best" from="106520501#4" to="-537470173#0"/>
    <trip id="truck110" type="truck_truck" depart="527.63" departLane="best" from="-38316093#3" to="-537300950#0"/>
    <trip id="truck111" type="truck_truck" depart="532.43" departLane="best" from="775445567#1" to="-537470132#2"/>
    <trip id="truck112" type="truck_truck" depart="537.23" departLane="best" from="837535482#2" to="468973156#1"/>
    <trip id="truck113" type="truck_truck" depart="542.02" departLane="best" from="772655168#2" to="-476450015#1"/>
    <trip id="truck114" type="truck_truck" depart="546.82" departLane="best" departSpeed="max" from="779730403#0" to="-537299509#1"/>
    <trip id="truck115" type="truck_truck" depart="551.62" departLane="best" from="775445565#1" to="-537452104#0"/>
    <trip id="truck116" type="truck_truck" depart="556.41" departLane="best" from="537301342#0" to="-537472168#1"/>
    <trip id="truck117" type="truck_truck" depart="561.21" departLane="best" from="479980583#0" to="392180101#1"/>
    <trip id="truck118" type="truck_truck" depart="566.01" departLane="best" from="-618443482#1" to="470910590#1"/>
    <trip id="truck119" type="truck_truck" depart="570.80" departLane="best" from="-537302257#2" to="537299509#0"/>
    <trip id="truck120" type="truck_truck" depart="575.60" departLane="best" from="-589958520" to="-392180104#1"/>
    <trip id="truck121" type="truck_truck" depart="580.40" departLane="best" from="-537470141#4" to="-837535482#0"/>
    <trip id="truck122" type="truck_truck" depart="585.19" departLane="best" from="-775445566" to="-537470155"/>
    <trip id="truck123" type="truck_truck" depart="589.99" departLane="best" from="-470910613#0" to="-98440838#0"/>
    <trip id="truck124" type="truck_truck" depart="594.79" departLane="best" from="772655168#4" to="507449298#1"/>
    <trip id="truck125" type="truck_truck" depart="599.58" departLane="best" from="59150654#1" to="477784541#0"/>
    <trip id="truck126" type="truck_truck" depart="604.38" departLane="best" from="-537470132#2" to="469153034"/>
    <trip id="truck127" type="truck_truck" depart="609.18" departLane="best" from="-102532327#0" to="-537470141#4"/>
    <trip id="truck128" type="truck_truck" depart="613.97" departLane="best" from="-98440838#5" to="470910593#1"/>
    <trip id="truck129" type="truck_truck" depart="618.77" departLane="best" from="507449293" to="37395951#0"/>
    <trip id="truck130" type="truck_truck" depart="623.57" departLane="best" from="102532334#0" to="-537300960#1"/>
    <trip id="truck131" type="truck_truck" depart="628.36" departLane="best" from="37394396" to="59150647#2"/>
    <trip id="truck132" type="truck_truck" depart="633.16" departLane="best" from="537470134#1" to="-537299505#2"/>
    <trip id="truck133" type="truck_truck" depart="637.95" departLane="best" from="-469348623" to="392180104#1"/>
    <trip id="truck134" type="truck_truck" depart="642.75" departLane="best" from="494317219#7" to="-537474459"/>
    <trip id="truck135" type="truck_truck" depart="647.55" departLane="best" from="-537299508" to="-38315375#5"/>
    <trip id="truck136" type="truck_truck" depart="652.34" departLane="best" departSpeed="max" from="537474459" to="-42007093#0"/>
    <trip id="truck137" type="truck_truck" depart="657.14" departLane="best" from="507449295" to="-106520488"/>
    <trip id="truck138" type="truck_truck" depart="661.94" departLane="best" departSpeed="max" from="-470910590#1" to="-98440838#5"/>
    <trip id="truck139" type="truck_truck" depart="666.73" departLane="best" from="-537280230#0" to="775445563"/>
    <trip id="truck140" type="truck_truck" depart="671.53" departLane="best" from="38316111#0" to="-38316109#0"/>
    <trip id="truck141" type="truck_truck" depart="676.33" departLane="best" from="106520501#0" to="537453285#0"/>
    <trip id="truck142" type="truck_truck" depart="681.12" departLane="best" departSpeed="max" from="537277441#0" to="929201570#1"/>
    <trip id="truck143" type="truck_truck" depart="685.92" departLane="best" from="476860661#0" to="772655168#4"/>
    <trip id="truck144" type="truck_truck" depart="690.72" departLane="best" from="537300958" to="392180099#0"/>
    <trip id="truck145" type="truck_truck" depart="695.51" departLane="best" from="537472169#1" to="469153034"/>
    <trip id="truck146" type="truck_truck" depart="700.31" departLane="best" from="59150647#2" to="537301343"/>
    <trip id="truck147" type="truck_truck" depart="705.11" departLane="best" from="-537301351#3" to="488604636#2"/>
    <trip id="truck148" type="truck_truck" depart="709.90" departLane="best" from="537302270#1" to="392180105#1"/>
    <trip id="truck149" type="truck_truck" depart="714.70" departLane="best" from="494317219#0" to="-537453287#0"/>
    <trip id="truck150" type="truck_truck" depart="719.50" departLane="best" from="468973156#0" to="-495352112"/>
    <trip id="truck151" type="truck_truck" depart="724.29" departLane="best" from="-537300960#1" to="537280243#2"/>
    <trip id="truck152" type="truck_truck" depart="729.09" departLane="best" from="537300950#0" to="-392180101#0"/>
    <trip id="truck153" type="truck_truck" depart="733.89" departLane="best" departSpeed="max" from="-775445567#2" to="469011789#0"/>
    <trip id="truck154" type="truck_truck" depart="738.68" departLane="best" from="-837535480" to="-537300958"/>
    <trip id="truck155" type="truck_truck" depart="743.48" departLane="best" from="-929201562#0" to="59150649"/>
    <trip id="truck156" type="truck_truck" depart="748.28" departLane="best" from="470910615#2" to="537280243#2"/>
    <trip id="truck157" type="truck_truck" depart="753.07" departLane="best" from="-59150731" to="-106520488"/>
    <trip id="truck158" type="truck_truck" depart="757.87" departLane="best" from="-537473697#1" to="537301350"/>
    <trip id="truck159" type="truck_truck" depart="762.67" departLane="best" departSpeed="max" from="537474461#0" to="772657044"/>
    <trip id="truck160" type="truck_truck" depart="767.46" departLane="best" from="-837535482#2" to="537301346#0"/>
    <trip id="truck161" type="truck_truck" depart="772.26" departLane="best" from="469011788#2" to="471664440#1"/>
    <trip id="truck162" type="truck_truck" depart="777.06" departLane="best" from="102532327#0" to="-38316093#0"/>
    <trip id="truck163" type="truck_truck" depart="781.85" departLane="best" from="-775445567#1" to="-537280243#1"/>
    <trip id="truck164" type="truck_truck" depart="786.65" departLane="best" departSpeed="max" from="494317217#0" to="-38316093#0"/>
    <trip id="truck165" type="truck_truck" depart="791.45" departLane="best" departSpeed="max" from="-392180099#1" to="-772655170"/>
    <trip id="truck166" type="truck_truck" depart="796.24" departLane="best" from="-537299519" to="-537472177#1"/>
    <trip id="truck167" type="truck_truck" depart="801.04" departLane="best" from="-537302255#2" to="-469348624#0"/>
    <trip id="truck168" type="truck_truck" depart="805.84" departLane="best" from="98440838#6" to="-589958519"/>
    <trip id="truck169" type="truck_truck" depart="810.63" departLane="best" departSpeed="max" from="495628566#0" to="537302268"/>
    <trip id="truck170" type="truck_truck" depart="815.43" departLane="best" departSpeed="max" from="495628566#0" to="537301351#0"/>
    <trip id="truck171" type="truck_truck" depart="820.23" departLane="best" from="470910592#0" to="-537301344#0"/>
    <trip id="truck172" type="truck_truck" depart="825.02" departLane="best" from="537299517#1" to="537302261#0"/>
    <trip id="truck173" type="truck_truck" depart="829.82" departLane="best" from="-507449298#0" to="476450014#0"/>
    <trip id="truck174" type="truck_truck" depart="834.62" departLane="best" from="537470171#1" to="775445566"/>
    <trip id="truck175" type="truck_truck" depart="839.41" departLane="best" from="-470910592#0" to="-38315375#6"/>
    <trip id="truck176" type="truck_truck" depart="844.21" departLane="best" from="775445564#0" to="-779730403#0"/>
    <trip id="truck177" type="truck_truck" depart="849.01" departLane="best" from="537299509#0" to="479980585#2"/>
    <trip id="truck178" type="truck_truck" depart="853.80" departLane="best" departSpeed="max" from="537474459" to="470910615#1"/>
    <trip id="truck179" type="truck_truck" depart="858.60" departLane="best" from="-470910609#2" to="901171523"/>
    <trip id="truck180" type="truck_truck" depart="863.40" departLane="best" from="537452104#2" to="-556954301"/>
    <trip id="truck181" type="truck_truck" depart="868.19" departLane="best" from="-98440838#4" to="-618443482#0"/>
    <trip id="truck182" type="truck_truck" depart="872.99" departLane="best" from="495344591" to="537470152#1"/>
    <trip id="truck183" type="truck_truck" depart="877.79" departLane="best" from="537300950#1" to="102532344#1"/>
    <trip id="truck184" type="truck_truck" depart="882.58" departLane="best" from="537301346#0" to="775445567#0"/>
    <trip id="truck185" type="truck_truck" depart="887.38" departLane="best" from="468467130#1" to="38316104#3"/>
    <trip id="truck186" type="truck_truck" depart="892.18" departLane="best" from="102532327#0" to="537300954#1"/>
    <trip id="truck187" type="truck_truck" depart="896.97" departLane="best" from="537472169#1" to="-470674290#0"/>
    <trip id="truck188" type="truck_truck" depart="901.77" departLane="best" from="589958519" to="-537302262#0"/>
    <trip id="truck189" type="truck_truck" depart="906.57" departLane="best" from="195718957#1" to="476450015#1"/>
    <trip id="truck190" type="truck_truck" depart="911.36" departLane="best" departSpeed="max" from="537474459" to="-537299512#0"/>
    <trip id="truck191" type="truck_truck" depart="916.16" departLane="best" from="-537472168#1" to="556954299"/>
    <trip id="truck192" type="truck_truck" depart="920.96" departLane="best" from="537299509#0" to="488604637#7"/>
    <trip id="truck193" type="truck_truck" depart="925.75" departLane="best" departSpeed="max" from="38316093#0" to="537452100#3"/>
    <trip id="truck194" type="truck_truck" depart="930.55" departLane="best" from="537299509#1" to="-537470173#1"/>
    <trip id="truck195" type="truck_truck" depart="935.35" departLane="best" from="470910614#1" to="38315375#5"/>
    <trip id="truck196" type="truck_truck" depart="940.14" departLane="best" departSpeed="max" from="392180104#0" to="-98440838#5"/>
    <trip id="truck197" type="truck_truck" depart="944.94" departLane="best" from="-537302255#1" to="-479980585#0"/>
    <trip id="truck198" type="truck_truck" depart="949.74" departLane="best" from="-537299505#2" to="-479980580"/>
    <trip id="truck199" type="truck_truck" depart="954.53" departLane="best" from="407710333" to="537302257#1"/>
    <trip id="truck200" type="truck_truck" depart="959.33" departLane="best" departSpeed="max" from="-537280243#2" to="-537301342#1"/>
    <trip id="truck201" type="truck_truck" depart="964.13" departLane="best" from="38315375#1" to="537300950#1"/>
    <trip id="truck202" type="truck_truck" depart="968.92" departLane="best" from="79613904" to="407712053"/>
    <trip id="truck203" type="truck_truck" depart="973.72" departLane="best" from="-537452100#5" to="-470910605#2"/>
    <trip id="truck204" type="truck_truck" depart="978.52" departLane="best" from="-537299506#0" to="-537301351#0"/>
    <trip id="truck205" type="truck_truck" depart="983.31" departLane="best" from="-537280230#4" to="-195718957#7"/>
    <trip id="truck206" type="truck_truck" depart="988.11" departLane="best" from="392180104#2" to="-537453287#0"/>
    <trip id="truck207" type="truck_truck" depart="992.91" departLane="best" from="779730403#5" to="469348622"/>
    <trip id="truck208" type="truck_truck" depart="997.70" departLane="best" from="537299515" to="-488604636#0"/>
    <trip id="truck209" type="truck_truck" depart="1002.50" departLane="best" from="554663658" to="38316111#0"/>
    <trip id="truck210" type="truck_truck" depart="1007.30" departLane="best" from="195718957#6" to="106520488"/>
    <trip id="truck211" type="truck_truck" depart="1012.09" departLane="best" departSpeed="max" from="-537280243#2" to="-38316109#0"/>
    <trip id="truck212" type="truck_truck" depart="1016.89" departLane="best" from="772655168#4" to="38316093#4"/>
    <trip id="truck213" type="truck_truck" depart="1021.69" departLane="best" from="537470173#1" to="-779730403#1"/>
    <trip id="truck214" type="truck_truck" depart="1026.48" departLane="best" departSpeed="max" from="-392180101#1" to="-537277440#1"/>
    <trip id="truck215" type="truck_truck" depart="1031.28" departLane="best" from="470674291" to="-537470171#1"/>
    <trip id="truck216" type="truck_truck" depart="1036.08" departLane="best" from="98440838#0" to="-476860661#0"/>
    <trip id="truck217" type="truck_truck" depart="1040.87" departLane="best" from="537302269" to="474484313"/>
    <trip id="truck218" type="truck_truck" depart="1045.67" departLane="best" departSpeed="max" from="929201567" to="-537470173#0"/>
    <trip id="truck219" type="truck_truck" depart="1050.47" departLane="best" departSpeed="max" from="494317217#0" to="476450015#0"/>
    <trip id="truck220" type="truck_truck" depart="1055.26" departLane="best" from="507449298#2" to="-537277441#1"/>
    <trip id="truck221" type="truck_truck" depart="1060.06" departLane="best" from="-102532327#2" to="106520501#4"/>
    <trip id="truck222" type="truck_truck" depart="1064.86" departLane="best" from="537299507#2" to="618443486"/>
    <trip id="truck223" type="truck_truck" depart="1069.65" departLane="best" from="537453286#2" to="479980583#1"/>
    <trip id="truck224" type="truck_truck" depart="1074.45" departLane="best" from="537277440#0" to="618443493#1"/>
    <trip id="truck225" type="truck_truck" depart="1079.25" departLane="best" from="495352114" to="59150654#2"/>
    <trip id="truck226" type="truck_truck" depart="1084.04" departLane="best" from="537470175#1" to="-392180105#0"/>
    <trip id="truck227" type="truck_truck" depart="1088.84" departLane="best" from="-495352112" to="-537470174#0"/>
    <trip id="truck228" type="truck_truck" depart="1093.64" departLane="best" from="537302257#1" to="470674290#0"/>
    <trip id="truck229" type="truck_truck" depart="1098.43" departLane="best" departSpeed="max" from="772655170" to="392163930#3"/>
    <trip id="truck230" type="truck_truck" depart="1103.23" departLane="best" from="38316093#1" to="-469348623"/>
    <trip id="truck231" type="truck_truck" depart="1108.03" departLane="best" from="-38316111#2" to="102532329"/>
    <trip id="truck232" type="truck_truck" depart="1112.82" departLane="best" departSpeed="max" from="-469348627" to="775445565#0"/>
    <trip id="truck233" type="truck_truck" depart="1117.62" departLane="best" from="537472175" to="470910590#1"/>
    <trip id="truck234" type="truck_truck" depart="1122.42" departLane="best" departSpeed="max" from="775445548#0" to="98440838#7"/>
    <trip id="truck235" type="truck_truck" depart="1127.21" departLane="best" from="537280230#1" to="-537453285#3"/>
    <trip id="truck236" type="truck_truck" depart="1132.01" departLane="best" from="-392163930#0" to="537301351#3"/>
    <trip id="truck237" type="truck_truck" depart="1136.81" departLane="best" from="195718957#7" to="494317219#3"/>
    <trip id="truck238" type="truck_truck" depart="1141.60" departLane="best" from="471664440#1" to="488604636#2"/>
    <trip id="truck239" type="truck_truck" depart="1146.40" departLane="best" departSpeed="max" from="38316093#0" to="-470910592#1"/>
    <trip id="truck240" type="truck_truck" depart="1151.20" departLane="best" from="-537470171#0" to="537280243#2"/>
    <trip id="truck241" type="truck_truck" depart="1155.99" departLane="best" from="-537452104#1" to="765276692"/>
    <trip id="truck242" type="truck_truck" depart="1160.79" departLane="best" from="537470159#1" to="469348614#1"/>
    <trip id="truck243" type="truck_truck" depart="1165.59" departLane="best" from="106520499#4" to="-537472169#0"/>
    <trip id="truck244" type="truck_truck" depart="1170.38" departLane="best" departSpeed="max" from="-537470166" to="775445567#2"/>
    <trip id="truck245" type="truck_truck" depart="1175.18" departLane="best" departSpeed="max" from="929201567" to="495344591"/>
    <trip id="truck246" type="truck_truck" depart="1179.98" departLane="best" from="468973158#1" to="-929201567"/>
    <trip id="truck247" type="truck_truck" depart="1184.77" departLane="best" departSpeed="max" from="-537280243#2" to="-59150654#0"/>